35
Coordinates from ORCA-job ./opt_b97-3c_parallel
  N   4.43243838190838     -0.00845841957506     -2.24440192680626
  C   3.53158423998039      0.11254894395398     -1.51516876637727
  C   2.45047921324017      0.31913796639520     -0.63696873629677
  C   1.91387208513116      1.59831459171173     -0.57215104497206
  N   2.50285531158059      2.59561691352641     -1.27280027877774
  C   0.80220099081033      2.01205478083058      0.25011723284895
  C   0.71962776592570      3.27330183160941      0.84827501349656
  N   -0.51669436288769      3.59682493544994      1.28394562309260
  C   -1.31076954329215      2.59358247725399      0.90155749586148
  N   -2.58908077663239      2.56512280453466      1.28723922320549
  C   -0.53491683146591      1.50569057311775      0.24509678374315
  C   -1.00593318955927      0.26648835804869     -0.14129617951484
  C   -2.33278160595741     -0.05628571709407     -0.57260387298299
  C   -3.32263917817466      0.80661999298684     -1.02918400802703
  N   -4.18520924448647      1.51644490052633     -1.36752216085800
  C   -2.44873747550136     -1.45521133328383     -0.64034801001259
  N   -3.49709096428403     -2.15872007718868     -1.05890975775999
  C   -1.20145112769614     -2.03264173082865     -0.21637336030879
  C   -1.00558125706947     -3.41667574612880     -0.18485173641687
  N   -0.93994747401258     -4.57745513122791     -0.22512007013605
  C   -0.29460273610909     -1.01102215466999      0.05529602646530
  C   0.96393210739620     -1.25212766463286      0.70079850362197
  C   0.98346279640209     -2.27291201929095      1.67673101987460
  N   1.07384097630587     -3.08189396576126      2.50869513277820
  C   2.21023569823390     -0.73442836938853      0.33986985618259
  N   3.31875253582487     -1.29988888778478      0.84540332505806
  H   1.97510706601645      3.42624833126123     -1.46700089598966
  H   3.28514191816098      2.40008743131693     -1.87580582254646
  H   1.53390484712749      3.97483542658378      0.96332378173533
  H   -3.28223530210143      2.04054448262063      0.78163752179858
  H   -2.91349123212726      3.38174889582094      1.77863784791721
  H   -3.45564145106468     -3.16227697475714     -1.10431648120035
  H   -4.33338674992551     -1.70264452593111     -1.37876263342467
  H   4.22645732199779     -0.97096942957668      0.57122960395716
  H   3.27003689020480     -2.14266145232891      1.39416877397063
