29
Coordinates from ORCA-job ./opt_b97-3c_parallel
  N   -4.52599599904815     -0.66525210205574      0.82737548865893
  C   -3.27808694933498     -0.30469322596375      0.41796937197225
  C   -2.97104948296349      1.00501673034765     -0.10359536517111
  C   -1.63239576101630      1.06709004262850     -0.35987786752429
  N   -1.05274891910168      2.05905097973306     -1.11300369562193
  C   0.10855161101605      2.55799897341404     -0.91127351185411
  N   0.95800556328086      2.47569356341429      0.15416230439203
  C   1.65347633383397      1.43990862591308      0.47572380165817
  N   2.69419325819563      1.64002122805317      1.37201788546136
  C   1.50055622594914      0.09284979032728     -0.02234751308210
  C   2.51429303915674     -0.87654281318105     -0.11139133628544
  N   3.84653239264099     -0.71452386343434      0.04727629239548
  N   2.04098630143461     -2.14354840894062     -0.34887692997256
  C   0.72373802336845     -2.03322993412287     -0.31763790054180
  N   -0.08416514643286     -3.09024809951388     -0.53527403009290
  C   0.27027274335362     -0.64653724330510     -0.11870473442510
  C   -1.05182867209953     -0.26949984518021     -0.02289044463150
  C   -2.14040005926478     -1.09433308622982      0.39533095586521
  H   -4.61595016475648     -1.51359402706734      1.35908591317181
  H   -5.14720989521288      0.06990190995477      1.11649183430334
  H   -3.68983176577963      1.77143031426555     -0.34633362044826
  H   0.43898113945469      3.27894141542060     -1.66069429829769
  H   2.84491958505455      0.89850380458305      2.03739596471345
  H   2.67976668878261      2.55928524476180      1.78573689324687
  H   4.22365114419217      0.21622243936247      0.01616316769269
  H   4.43077136463742     -1.46727951962356     -0.27081862113085
  H   0.34552717661778     -3.89796573221411     -0.95385604386589
  H   -1.03929339714493     -2.89763398606722     -0.79073591684732
  H   -2.04421688411360     -2.04596280807973      0.89356617606123
