31
Coordinates from ORCA-job ./opt_b97-3c_parallel
  N   5.33984014533520     -0.49886011665338     -1.17703037233187
  C   4.23702235372378     -0.36237882823144     -0.83622891215320
  C   2.90941350684291     -0.31485420551390     -0.38877122657060
  C   2.04001778239312      0.72608163831254     -0.39093549547281
  C   0.73865249989209      0.24922292046811      0.07762163591707
  C   -0.35125860126271      1.07616786882409      0.17212669419445
  C   -0.27876695495338      2.54054970296096      0.23530607262882
  C   0.86263445032720      3.32289570222033      0.44911456602749
  N   1.80645209929770      3.98388776380548      0.61239826306070
  C   -1.56374032300084      3.02414849063022      0.22707435489841
  C   -2.47187282954694      1.93370404733067      0.10985593838010
  C   -1.78644642014064      0.74134057464341      0.11749438034528
  C   -2.44450355938878     -0.50833927968341     -0.22259456126808
  C   -3.52673630490638     -0.38042711063822     -1.12324854068222
  N   -4.43107265816832     -0.33857063058033     -1.85566609256444
  C   -2.28867074646157     -1.76483059045908      0.33593862935516
  N   -3.21019185147844     -2.73757157368933      0.08694695350472
  C   -1.26928253303476     -2.18346788361588      1.27558493397772
  C   0.05726188165669     -1.97690721348573      1.23954572116306
  C   0.88403296824879     -1.15067382394817      0.40890350968909
  C   2.20858422539570     -1.48513387088358      0.15536971964299
  N   2.83604399245954     -2.64493609671117      0.39828079125258
  H   2.24622073261176      1.71230181722551     -0.76313314805411
  H   -1.83599106793589      4.06274619918112      0.32456817245374
  H   -3.53962319222848      2.03060509110205     -0.00282045336070
  H   -3.92290997720073     -2.57460368684827     -0.60552859445518
  H   -2.94175572867499     -3.69531442504014      0.22044358219964
  H   -1.62977365535673     -2.87837986101544      2.02565129859382
  H   0.61537362556147     -2.54355501800053      1.98351500925781
  H   2.31217848143749     -3.47988576028343      0.58533324225758
  H   3.80012066985615     -2.76102325532297      0.13869557281315
