29
Coordinates from ORCA-job ./opt_b97-3c_parallel
  N   -4.69546653057173      1.25334764479321      0.30499985885002
  C   -3.65930507791810      0.72315538370329      0.25820790170190
  C   -2.46578243375049      0.00664101622096      0.21574471476991
  C   -2.36836503365212     -1.42630375414659      0.24255953206104
  N   -3.40540284221863     -2.24799805819852      0.41527994776975
  N   -1.12232911603211     -1.87190270804627      0.07896762824873
  C   -0.31693646241736     -0.76348933429827     -0.01653571028940
  C   1.04680565259733     -0.86514403601848     -0.10335850986397
  C   1.74733075876727     -2.13383247263414     -0.36743767080073
  N   1.13577846643530     -3.29272071302372     -0.62098203897600
  N   3.07016735636305     -1.98583273345564     -0.38963986767778
  C   3.28873871137244     -0.67899761470884     -0.07393425293506
  C   2.13434550097727      0.07435842262843      0.09116330208247
  C   2.10637037043803      1.38871775265151      0.67928452945584
  N   3.15123252312059      1.68497918916665      1.50831617708118
  N   1.25769443800568      2.35412667195166      0.48082627796715
  C   0.23928979368613      2.37572184764446     -0.40379727971242
  N   0.32099773327022      3.35417336108634     -1.33395045130808
  N   -0.89684845639110      1.70973833680327     -0.38924204961172
  C   -1.17061083911256      0.47765128797034     -0.01386702892031
  H   -3.26819991770460     -3.24125799419419      0.38032211623615
  H   -4.33559945042714     -1.88620934273983      0.52078977949384
  H   1.69776828813718     -4.11495854880973     -0.75032187383144
  H   0.14350735938234     -3.34537265193382     -0.42782676941618
  H   4.30171504697093     -0.31329169139902      0.01547026424119
  H   3.10128719297963      2.57387099228145      1.97649268983030
  H   3.57581406150967      0.93298501189565      2.01960083175009
  H   1.03481333120508      4.05130620315187     -1.22709720940076
  H   -0.51672885922124      3.60007571345716     -1.83133626619529
