28
Coordinates from ORCA-job ./opt_b97-3c_parallel
  N   2.72791617496869      2.91183583440311      1.42951671567225
  C   2.01697051367751      2.14169055708234      0.92424806735852
  C   1.19609593400205      1.16079772696655      0.31786335306822
  C   0.05074930312144      1.69252062861265     -0.34779116711054
  C   -0.06960184218402      3.00633147394581     -0.73273495609751
  C   -1.43101238375815      3.20740783631281     -1.09509871843776
  N   -2.19573794906152      2.14496214051020     -0.90668310882755
  C   -1.35398205203723      1.15927277563108     -0.44622198852456
  C   -1.86402700388682     -0.01587111868636      0.03003617585546
  C   -3.24762867555599     -0.14969013890041      0.46100477489938
  N   -3.47361203047656     -1.30734178187522      1.02725157799104
  C   -2.29908962853295     -2.03401942472618      0.89363706926944
  C   -1.27222699983386     -1.30391009142610      0.33041419615829
  C   -0.07356047770524     -1.89852786124158     -0.20522964124623
  N   -0.23295698685227     -3.17983853872665     -0.61330989984048
  C   1.20097713566357     -1.33530347674585     -0.28961518461891
  C   2.18935554303272     -2.15704743929562     -0.87417754330870
  N   2.97130265932073     -2.87253092223732     -1.35741914187253
  C   1.72624494151605     -0.13876859177977      0.34588172333641
  N   2.93610658825420     -0.31095841281131      0.92141402480175
  H   0.71354570794508      3.74570488764922     -0.74503371279136
  H   -1.84910222745371      4.11610987511944     -1.50769328248864
  H   -3.98065418102406      0.63960833857869      0.41932727466807
  H   -2.26353974938830     -3.06085149408946      1.22556196608923
  H   0.53747880931335     -3.69135171177944     -1.01024465176317
  H   -1.15604828671757     -3.50364301645810     -0.83383705558715
  H   3.37134172956092     -1.21495106245800      0.92937018286517
  H   3.50344459409299      0.47697422682469      1.18559316788181
