28
Coordinates from ORCA-job ./opt_b97-3c_parallel
  N   4.45432617880727     -0.03317581321240      0.84717453694490
  C   3.32727083762864      0.07848340468797      0.57673923274892
  C   1.96052702096331      0.24193754343117      0.23072292068745
  C   1.26820638042756     -0.95498853252866      0.19831978106343
  C   -0.03413076418783     -1.39718669530041     -0.01532208168331
  C   -0.29315990298300     -2.78223837254406     -0.11391513454505
  N   0.62231928952919     -3.78235030107433     -0.19347062523241
  C   -1.70462582513051     -3.00827303648178     -0.06022414934606
  C   -2.33308913330969     -1.80878117441077      0.07016407301986
  C   -1.35480030266099     -0.75120562128909      0.07438699871482
  C   -1.74888360489752      0.55654920723987      0.16136404845143
  N   -3.09870689303140      0.83231445935765      0.31950710219808
  C   -3.21563968917902      2.14366692062816      0.21469964723375
  C   -1.98840609159733      2.80490153052795     -0.01984286981242
  C   -0.99631267796365      1.83616563558929     -0.03333420313962
  C   0.34400092795995      2.18070835011282     -0.26779752653057
  C   1.58707247486139      1.59545927030464     -0.13531292266610
  N   2.65553489668136      2.41655223669075     -0.41531343291100
  H   1.93797933363877     -1.78031471874542      0.42076068290970
  H   0.28670641552922     -4.70617618499837     -0.39729495300124
  H   1.53115946081868     -3.58400077044721     -0.57175572404501
  H   -2.17621454231383     -3.97766395764797     -0.12534610191160
  H   -3.39045329249422     -1.62405630393713      0.12749169287667
  H   -4.18528057016162      2.61472298108497      0.31371795165108
  H   -1.83884171432225      3.86604078329931     -0.14119641577603
  H   0.42191625110786      3.22470142558242     -0.55815919423923
  H   3.57928656945184      2.12611331905577     -0.14481631433742
  H   2.50204611202784      3.40810881342484     -0.39102895692303
