33
Coordinates from ORCA-job ./opt_b97-3c_parallel
  N   4.57496660471187     -2.09801612475384     -0.58079945146214
  C   3.62976621494235     -1.44245746699042     -0.40009121385460
  C   2.53714203776740     -0.60510867061135     -0.15982406569412
  C   1.18004919465462     -0.92919589801934     -0.27832366619191
  C   0.73788414392242     -2.17952838075297     -0.82100179917736
  C   -0.35477847647854     -2.89563939072482     -0.48538174984740
  N   -1.23433118013544     -2.70212034901983      0.54368710066547
  C   -1.97248518947398     -1.67074198920895      0.70540237436858
  N   -2.92654142246800     -1.72617470395551      1.72060717264771
  C   -2.00216396055362     -0.44947213213901     -0.09652655013172
  C   -3.19677216570015      0.24130109662976     -0.43309120175569
  N   -4.43659587700425     -0.27139328822546     -0.34083565457754
  C   -2.89946793507104      1.54879046872873     -0.89926720839378
  C   -1.54127269495528      1.72268354458825     -0.79883666670882
  N   -0.82765306588231      2.74134334726301     -1.30973888223494
  C   -0.93305088878419      0.45866302338989     -0.25687851856514
  C   0.42277776839492      0.27675378655640     -0.00377577640797
  C   1.38045851749670      1.30520421380150      0.35565329426052
  C   1.14113177850658      2.54529824611244      0.94154894396351
  N   0.98727843311904      3.60697032541219      1.40313795588455
  C   2.66572471122761      0.75398859142816      0.27710964169388
  N   3.83302754505000      1.36350142170571      0.55705080795770
  H   1.41764270999759     -2.64986095490766     -1.52195391162702
  H   -0.49010795337474     -3.84991538929520     -0.98691406463784
  H   -3.05029767413969     -0.86289078861677      2.22716793488014
  H   -2.79270146273189     -2.52114749104890      2.32810920487212
  H   -5.22795140466219      0.34400095205971     -0.39827855215396
  H   -4.55872637511512     -1.12220396592090      0.18599606447869
  H   -3.60474628527750      2.23909869578749     -1.33345151894859
  H   0.11655760512671      2.89250104274499     -1.00386323004065
  H   -1.31911040205825      3.56726549527657     -1.60159565560161
  H   3.81774406754805      2.25150213861197      1.02775197588386
  H   4.65717581940047      0.80264124829428      0.68387471715603
