30
Coordinates from ORCA-job ./opt_b97-3c_parallel
  N   4.64152503442056     -0.87251824905544     -0.49150573994776
  C   3.63653204078437     -0.34922691749107     -0.23161098671460
  C   2.40765732900451      0.29718880607704      0.08326809025964
  C   2.59696447807599      1.64245787607641      0.45016693517015
  C   1.79604231441278      2.66385560650668      0.90331115016432
  C   0.41450155853653      2.86939188970063      0.95556378265973
  C   -0.67598317911992      2.20622602624170      0.45013644441196
  C   -1.91596461283146      2.87776666927656      0.37163321093805
  C   -2.80459160874136      2.14723301959172     -0.39069301604404
  C   -2.19955835075984      0.92921225484398     -0.76197348031427
  N   -2.74528316689783      0.07090390850726     -1.66848682989988
  C   -0.89290497098461      0.86691971758994     -0.18387237247982
  C   -0.19048774726526     -0.31530054868682      0.02205336151649
  C   -0.80156472369698     -1.59792720460981      0.06397451263801
  C   -2.13422712798077     -1.92901746181512      0.28644539813149
  N   -3.23090417772466     -2.29220888368608      0.45207236503697
  C   0.22275721271675     -2.58860287402857      0.13217333804294
  N   -0.00739394205663     -3.90263143835189      0.22360627096706
  C   1.47087213135545     -1.95495473064898      0.11570689467145
  C   1.29413640483501     -0.57400198464364      0.11544607930179
  H   3.64530588920359      1.91558990023633      0.43212944561708
  H   2.36253357011568      3.52439183679244      1.23795013371731
  H   0.15003621611302      3.83004469734532      1.38580786020316
  H   -2.08977563348851      3.86389056202699      0.77294715110495
  H   -3.78657478217478      2.46638076152295     -0.70568851001147
  H   -2.29636850035250     -0.81932332346071     -1.78452391968146
  H   -3.74846308732250     -0.00495812808705     -1.67234536249965
  H   -0.94534252018047     -4.24412554351107      0.34618576362979
  H   0.74464516939461     -4.54270628616948      0.40041134236716
  H   2.42210710340949     -2.45867379989032      0.14061710014374
