33
Coordinates from ORCA-job ./opt_b97-3c_parallel
  N   5.07610763706856      2.51849164052463      0.78237115249203
  C   4.07309460939041      1.97756844283849      0.54305916941405
  C   2.90847446328447      1.26211573152309      0.24515482749992
  C   1.59586705439429      1.72197120891268      0.24522288784448
  C   0.72382339621012      0.64555992110741     -0.02312657164470
  C   -0.65652845904277      0.85201956992946     -0.17398523336550
  C   -1.22279960204543      2.09831539903492     -0.43837679553330
  C   -2.61961601426951      2.00778460167003     -0.34258510578477
  N   -3.50677243044860      2.98526290195070     -0.56809825318002
  C   -2.97660236814636      0.67140067653566      0.00014771706903
  C   -4.28105740327692      0.22991515075636      0.19376643475738
  N   -5.38625801024197     -0.10772443886347      0.35704820842954
  C   -1.79340442392631     -0.09680547964774      0.08896288700805
  C   -1.81705994777438     -1.40096720835815      0.52830471173593
  C   -0.86238172339885     -2.43481876850358      0.49057998698568
  N   -1.12884861350047     -3.52300603795248      1.26616227441950
  N   0.19009032112157     -2.59756752302971     -0.30304513000561
  C   1.17927707922978     -1.83676378503097     -0.68061837554969
  N   2.04640354953762     -2.44312789198921     -1.55384938355029
  C   1.56157806390404     -0.53843652680146     -0.21714377247178
  C   2.89711821457887     -0.13217214013574     -0.08395974695479
  N   4.04658588042723     -0.86231042093249     -0.26629300363422
  H   1.29227016946477      2.72252212052432      0.49791060755869
  H   -0.68059895402697      2.98402443467592     -0.72255139881723
  H   -4.48954916166390      2.82146854058682     -0.43998145206557
  H   -3.20927586256113      3.92573373492243     -0.74576388575198
  H   -2.77730057527895     -1.71220902699421      0.92602841387780
  H   -2.02260719981297     -3.60935006761942      1.71533741455899
  H   -0.64274048813424     -4.37414479539557      1.04659240131173
  H   1.73633543748903     -3.32083757434326     -1.93491342786881
  H   2.58747515034381     -1.85541112094361     -2.16401068866972
  H   3.96167012190105     -1.85828935675569     -0.15067546680475
  H   4.86785723720417     -0.47786506739608      0.17310745058990
