30
Coordinates from ORCA-job ./opt_b97-3c_parallel
  N   4.48450780172529     -1.11765443441147      0.46810253936718
  C   3.46677870878016     -0.55686597224249      0.35288283017749
  C   2.27035508014671      0.13639019372303      0.21848491830879
  C   2.15989996988311      1.53078536286614      0.09992267089582
  N   3.18570969839397      2.39647909004867      0.16363108342396
  C   0.80512026975274      1.87861287469482     -0.11597436049128
  C   0.01275765599089      0.73589608953967     -0.09981521925853
  C   -1.39494595002870      0.72813958307148     -0.12804594040611
  C   -2.18479342967148      1.88368891076027     -0.34829522678346
  N   -1.76801093481703      3.08179086447773     -0.89095388398210
  C   -3.48748634167611      1.66975903757795      0.16044966405600
  C   -3.54759889254921      0.40366186725716      0.69578770479302
  C   -2.31068272840918     -0.26120845029858      0.47154590760725
  C   -2.27175618739778     -1.62855940817616      0.64174167233583
  N   -1.53097607688375     -2.59230403289250      0.11656131506675
  C   -0.31757157464699     -2.61678698619877     -0.36975761067747
  N   -0.04162468128957     -3.69455829695283     -1.15408312673770
  C   0.81176281548147     -1.76963483518126     -0.11111004825480
  C   0.96130060022965     -0.42835094087851      0.05312924090815
  H   3.01166737705741      3.38255356051288      0.21398801201018
  H   4.08813670943938      2.07591369831048      0.46804190364906
  H   0.44398622713557      2.89213821354898     -0.10287718018376
  H   -2.52291647944158      3.66287286486376     -1.21831719044233
  H   -1.04219454387099      2.99749263331362     -1.58600291774746
  H   -4.29242548234553      2.38909033623794      0.12193164674750
  H   -4.42334619524889     -0.07137118006247      1.10996392605287
  H   -3.11829057805183     -2.02328668170118      1.19984970750638
  H   0.89837393902604     -3.89154735537364     -1.44202444873795
  H   -0.71276631560884     -4.44183834311963     -1.17418318371877
  H   1.75004540199509     -2.31624014651513     -0.11207818778418
