21
Coordinates from ORCA-job ./opt_b97-3c_parallel
  N   2.54757827019596      1.52749501427459     -1.19837493268229
  C   1.59355701320639      1.17906788340222     -0.32227567162111
  N   0.99320642548210      2.17569082375776      0.30889474691082
  C   -0.21424591486731      2.31066638579059      0.77235788129570
  N   -1.36852153090020      1.83802913369347      0.33524519452743
  C   -1.77024630226817      0.66360869822486     -0.04155471300327
  N   -3.02731140665601      0.43116705930151     -0.47689652894172
  C   -3.12715561247345     -0.90389647292915     -0.43595741348816
  N   -2.04690055722670     -1.62911664786114     -0.06399273935425
  C   -1.09245972147289     -0.70672857285198      0.12334750996416
  C   0.25245716106323     -1.00666597632707      0.24581130482113
  C   0.75691392236303     -2.33680987021234      0.38492328293868
  N   2.07618966412857     -2.39261444482168      0.28970462382957
  C   2.49462338765485     -1.11675661636215      0.01600074727045
  C   1.44941265568747     -0.20784466669036     -0.00814653319831
  H   3.02979571555324      0.83360489252961     -1.73766670399478
  H   2.77492788964501      2.49786591247184     -1.32641981335000
  H   -0.31886851065236      3.05997584464825      1.55432999180063
  H   -4.05263045783869     -1.39841832071502     -0.69795198839225
  H   0.15129330301888     -3.21278418861685      0.55319753671086
  H   3.54756467605706     -0.90125121550696     -0.09289965914328
