32
Coordinates from ORCA-job ./opt_b97-3c_parallel
  N   -3.98187692806069      1.65321327144967     -2.22703367800012
  C   -3.09511877306492      1.34480479727016     -1.54083236169890
  C   -2.05252286381915      0.96267522042126     -0.66191348741071
  C   -0.96104523714592      1.76415194170840     -0.57388555769947
  C   0.23593670542979      1.58334887634435      0.16799267720034
  C   1.04947277916937      2.68178078093310      0.59386486077879
  N   0.69927685006993      3.96382705451068      0.59046194355933
  N   2.29178887871425      2.32780653823521      1.01203403440882
  C   2.35590990636974      1.01848643741018      0.81173589178571
  N   3.37458058108392      0.30119442803745      1.24691118379769
  C   1.09073109543008      0.45858456224523      0.22655228038242
  C   0.89713690986815     -0.83601328740863     -0.21041415101195
  C   1.91457735998087     -1.74618401700414     -0.73550874350069
  C   3.20381168954092     -1.41521509716944     -1.16864618431460
  N   4.29212792359581     -1.14652423929410     -1.48700243068837
  C   1.29575759764779     -2.95500186525243     -1.00480591682916
  C   -0.06581547892289     -2.86769939911354     -0.62812811203737
  C   -0.34649802234022     -1.58814296989241     -0.19162310638749
  C   -1.59624335380087     -1.24446092003941      0.47922601375393
  C   -2.10272234116407     -2.20984578743809      1.37752470654339
  N   -2.57195333572525     -2.97663180820707      2.11743323848425
  C   -2.38339020921852     -0.14521049557325      0.26256567691519
  N   -3.56321752762229      0.03057977574871      0.91463317320380
  H   -1.00727012278006      2.67016087637942     -1.17475839681136
  H   1.36679914340963      4.65355370959130      0.88790009882220
  H   -0.24577375562086      4.25170457772627      0.41765949919734
  H   3.47249436157487     -0.66777068658210      0.99895418622382
  H   4.19136885354414      0.78393598531491      1.58253618692144
  H   1.77270125237013     -3.80132886347667     -1.47193865314349
  H   -0.77209078048046     -3.68228711159510     -0.64748355013187
  H   -3.96107175354747     -0.74942364453377      1.41278179048687
  H   -4.22179069168587      0.69391911985384      0.54700266150039
