32
Coordinates from ORCA-job ./opt_b97-3c_parallel
  N   5.09785897093337      0.35978238154080      0.30154011104726
  C   4.05861780588966     -0.11576394069442      0.07543905122648
  C   2.80214416779978     -0.67302077176200     -0.18222533754790
  C   2.55833079015830     -1.99991905580465     -0.66781884578025
  C   1.21053063050758     -2.21836263430949     -0.70787025842097
  C   0.53244827696017     -1.01597054644807     -0.28833220540105
  C   -0.81363804669946     -0.91398566830730     -0.00601106639366
  C   -1.65932788146598     -2.08098476480247      0.38902896487731
  N   -1.17137918374228     -3.32856644313469      0.58906485370188
  C   -2.94005119686480     -1.64718869439634      0.60505000432307
  C   -2.97008333856519     -0.24680465367855      0.33662779121228
  N   -4.08411055874307      0.50929763485194      0.42719219909527
  C   -1.67655513182988      0.22173192983817      0.01616317950286
  C   -1.42180187328126      1.50184227033817     -0.61903620958232
  N   -2.41436019494345      1.92224950136493     -1.50484377625709
  N   -0.45105282601666      2.32194485216557     -0.43937986503401
  C   0.53438770201975      2.22337219640097      0.50812351793712
  N   0.59772910076281      3.34646554350462      1.30057763782718
  C   1.48645640053063      1.24513452070041      0.63804493669273
  C   1.57882578562811     -0.01473972446467      0.01005150286239
  H   3.33055097698980     -2.68199199115795     -0.98739267637118
  H   0.72970068007280     -3.07041924785274     -1.15983086657670
  H   -0.17137914609524     -3.41828531115670      0.67783621059092
  H   -1.70896849575306     -3.94872470717670      1.16967393419005
  H   -3.76388714278692     -2.23013769428513      0.98586946844361
  H   -4.97887438665407      0.05358738688296      0.43156117106908
  H   -4.05298930707820      1.43413015422647      0.02742773465118
  H   -2.77147229739386      1.19594814859857     -2.10638909452537
  H   -2.14630309699183      2.75293677710722     -2.01120392212458
  H   1.46154352297152      3.50740568467420      1.79121945033102
  H   0.19356943364129      4.17199029006200      0.89121248269159
  H   2.35042272563980      1.51791223717458      1.23519059944169
