30
Coordinates from ORCA-job ./opt_b97-3c_parallel
  N   4.69846202615989     -0.33783207247215      1.92089090837095
  C   3.76778455312135     -0.44149519629362      1.23542297668487
  C   2.61140320103379     -0.62785335125409      0.42476187829060
  C   2.18088342715854     -1.90868412008104      0.28180421624179
  C   1.11770278588457     -2.48130867726737     -0.48250781015982
  C   -0.17022479993692     -2.10426739464608     -0.64827378255116
  N   -1.05171661411981     -2.98908227700429     -1.29236084393033
  C   -0.84735570850930     -0.91218883445907     -0.14331327239951
  C   -2.19951827127509     -0.91757169973537      0.29516760546773
  N   -2.93652219486382     -1.98822133001908      0.57891219070671
  C   -2.69813008162133      0.42672897775856      0.40819430095622
  C   -3.98558039472957      0.78401952583958      0.79766122719667
  N   -5.07042355963333      1.06190747920186      1.12137513977916
  C   -1.67338249841440      1.27141456999018      0.00228517802464
  N   -1.67151932867183      2.58448128961843     -0.09680539483596
  C   -0.46066508378672      0.43126390490789     -0.28436667271143
  C   0.76977484120207      1.01709219032552     -0.53475387429371
  N   0.86074337406328      2.34774095635379     -0.92922203829231
  C   2.15135684479721      2.61187878249358     -0.88122473011309
  N   2.94351246373968      1.59495636145526     -0.42327227633670
  C   2.11286946374985      0.57659807606989     -0.22328958409392
  H   2.82057516384500     -2.64872179072844      0.75167386677578
  H   1.37584651507097     -3.45006420982315     -0.90289470380942
  H   -1.69701767424617     -2.52910583945426     -1.91868775436504
  H   -0.59060687348199     -3.75682504427308     -1.75645034819336
  H   -3.91010463904576     -1.88763016364020      0.81137999094223
  H   -2.58132900527452     -2.90258457689565      0.34560898336419
  H   -2.48892861489351      3.12493026514536      0.13138030162869
  H   -0.81588544690185      3.00776144411664     -0.47623250789376
  H   2.56739125108026      3.56337135936923     -1.17514723234908
