26
Coordinates from ORCA-job ./opt_b97-3c_parallel
  N   -4.82247011745976     -1.22203195750760     -0.04662911752235
  C   -3.79606244498864     -0.67677003643989     -0.04785661120294
  C   -2.56810407847504     -0.00280183739541     -0.05427291856014
  C   -2.39438885629434      1.40041701373640     -0.31190629522138
  C   -1.08037853075788      1.73426207766113     -0.12593166944426
  C   -0.56404634079730      3.02291423150976     -0.31091414278024
  N   -0.14255217940504      4.09680551961000     -0.45983755473110
  C   -0.33558376262623      0.50187343667034      0.16544517543203
  C   1.02920119992874      0.38058114739327      0.21025691067243
  C   1.94104446871358      1.52516270706198      0.45914030571674
  N   3.18378665992590      1.17475350963860      0.47644388276359
  C   3.18485967960475     -0.19971930716289      0.16008408039210
  N   4.37500439709765     -0.78368461611923      0.02271568178130
  C   1.90524758081366     -0.73785065184648      0.01628547684614
  C   1.68111357512884     -2.03686091112107     -0.55054008550109
  C   0.65328102784564     -2.89723208130760     -0.42787128720951
  C   -0.45994250375124     -2.79030482259337      0.48818590334090
  N   -1.24119483253335     -1.82274064727170      0.76599964958580
  C   -1.33523658552083     -0.56879181025616      0.24755956001630
  H   -3.18245249285891      2.07636608349369     -0.59785239332272
  H   1.63722093597670      2.53302710084448      0.68960648357045
  H   4.47368729892544     -1.77640171046431     -0.07836751964388
  H   5.20191125012424     -0.22744673032914      0.14877917005061
  H   2.50388825004135     -2.39611057695916     -1.16561801938135
  H   0.75987212564664     -3.86750533873885     -0.89855974107933
  H   -0.66687649050408     -3.70760346830761      1.04227227643258
