33
Coordinates from ORCA-job ./opt_b97-3c_parallel
  N   -4.41791449845427     -0.12132566070822     -1.65665298497339
  C   -3.41721940919383     -0.61731214915836     -1.32487661243152
  C   -2.23709067276115     -1.22043488684744     -0.87365769994765
  C   -1.83410312235148     -2.50584885367513     -1.20546947772884
  C   -0.50011192344542     -2.70314125253740     -0.78524393374814
  C   0.00856218882469     -1.52530849918771     -0.27480331815899
  C   1.26343177357749     -1.45360686483820      0.43201308483018
  C   1.62761842131200     -2.59915625589429      1.17126796350028
  N   1.98438488387153     -3.52312397220707      1.78394802659121
  C   2.23043786046553     -0.46490215186840      0.31645939137604
  N   3.44301836313437     -0.63966209439728      0.88045289803030
  C   2.09258839155790      0.75578152609204     -0.47698729277614
  C   3.17994810841949      1.05607530514182     -1.31856346667855
  N   4.07459601645741      1.34589869309369     -2.00754011227426
  C   1.13852314082241      1.74168565538211     -0.28077261185155
  N   1.35210468006318      2.97995882226877     -0.80701422138921
  C   -0.05550289054488      1.62676840464465      0.52179941028744
  C   -0.60179228080059      2.72734243197965      1.20606135271316
  C   -1.92742907867904      2.49867307185382      1.58757453354714
  C   -2.28836265466288      1.25280325804508      1.10344292220774
  N   -3.39255667507764      0.56878988396171      1.40747924693767
  C   -1.10331116885971      0.66447195766286      0.37979397709467
  C   -1.10039490840526     -0.54758753047678     -0.26383918603199
  H   -2.43532217236252     -3.21697998518813     -1.74962260637694
  H   0.04123231689185     -3.63334361023184     -0.84268228168486
  H   3.70889687763085     -1.53113975962730      1.26517752442700
  H   4.17204935434535      0.02972307951379      0.71584383961508
  H   0.54737331500677      3.54464079276775     -1.01147601781010
  H   2.14841365224997      3.12366103038473     -1.40688831183872
  H   -0.05824559234316      3.64056870089227      1.40017213968198
  H   -2.53726954735993      3.14305380586372      2.19875855452963
  H   -4.14343471762377      1.03366730319831      1.88668679941564
  H   -3.63679099770533     -0.26688961270283      0.90502903101566
