29
Coordinates from ORCA-job ./opt_b97-3c_parallel
  N   -4.91284269348557     -0.35898086652000      1.59662310301911
  C   -3.90676020885776     -0.51519530058614      1.03715469347152
  C   -2.67958586268664     -0.69516419141172      0.33651598129907
  C   -2.33033230682749     -1.98466799251371      0.10541052169865
  C   -1.20669518464606     -2.57722328715381     -0.55517834641274
  C   0.09688047097185     -2.23356263475084     -0.59475296983104
  C   0.84032366381800     -1.10574083875551     -0.11343542608314
  C   2.23457787845669     -1.21869179280651      0.11498237078313
  N   2.93427410696829     -2.35197387019791      0.16457992162335
  C   2.84302779330795      0.07268098642710      0.24811723618870
  C   4.18763753254887      0.32235244404515      0.50220485254149
  N   5.31881274511789      0.51287820233823      0.71172026154205
  C   1.83147907452886      1.01023995642856      0.07963142710546
  N   1.93700498205666      2.32207134039968      0.12000406579968
  C   0.52840989578821      0.27709787239669     -0.10706477795373
  C   -0.66705483556036      0.96017242490138     -0.24429839184969
  N   -0.62393930680241      2.33913223145868     -0.51070305678283
  C   -1.86672423583451      2.75639939513973     -0.56100029877694
  C   -2.78723075416827      1.70001966697545     -0.28871637200346
  C   -2.05024282104941      0.55451687485837     -0.09459307997439
  H   -3.05771963117362     -2.71424903425217      0.44467201062439
  H   -1.43640254578123     -3.54199274375073     -0.99408463948680
  H   0.72168502977613     -2.96758435528360     -1.09939310475362
  H   2.47161209100781     -3.24089271935134      0.21862050741882
  H   3.92143772863745     -2.33126452201435      0.35350822206281
  H   1.08524145341322      2.84104434296729     -0.12863544232745
  H   2.83668765799750      2.76108503350015      0.22399888668561
  H   -2.10634571188351      3.78849375310384     -0.77231988720483
  H   -3.85833918953857      1.78864376750809     -0.20848120552318
