27
Coordinates from ORCA-job ./opt_b97-3c_parallel
  N   4.30479453635412      0.22151651167976     -0.83695195282780
  C   3.04809943988514     -0.00259596156593     -0.40880306508210
  C   2.57977211385674     -1.29194323387755      0.02290814342849
  C   1.25826330209972     -1.17956459204530      0.34657739221523
  N   0.57989042825390     -2.10409267283916      1.06234565257545
  C   -0.65271760740068     -2.47441686676039      0.97128260291630
  N   -1.57001085095371     -2.29519177094732      0.00745072394762
  C   -2.03898211806174     -1.17856491225244     -0.45584595704916
  N   -3.02887315858830     -1.27519453299551     -1.39352826637913
  C   -1.72531920244066      0.16541835295164     -0.02089414825240
  C   -2.62605464093590      1.21400374892120     -0.00201272509392
  N   -2.04652382236080      2.43268628519733      0.24029283266172
  C   -0.74410365742596      2.20084823295856      0.28806265357944
  N   0.15469662127560      3.20203462475813      0.50978090649333
  C   -0.42117830714808      0.78165938208889      0.14448161814025
  C   0.85321433827987      0.26272340661206      0.07614978952964
  C   2.02838911029441      0.94408657035495     -0.30091278052274
  H   4.89114243182192     -0.55231179278490     -1.09025833508904
  H   4.55215219875441      1.11460054323562     -1.22285210914413
  H   3.19290648179151     -2.16255861430648      0.18971268744204
  H   -0.96931744835302     -3.17364214335892      1.74524641950366
  H   -3.15383128394017     -0.50782137303290     -2.02771321646365
  H   -3.21284025620061     -2.19703410520343     -1.75159688080212
  H   -3.69537577946424      1.14277932090072     -0.13656537381908
  H   1.03121171463937      2.92953983577482      0.92457720615426
  H   -0.25497763778879      4.03317056670298      0.90564034603159
  H   2.06968767335601      1.93889955653350     -0.71315329559382
