24
Coordinates from ORCA-job ./opt_b97-3c_parallel
  N   -2.53915170414294      1.73269054826996      0.89574138464205
  C   -1.32369664947636      1.38017020710955      0.33668695520765
  C   -0.45279275292838      2.41533353932788      0.07487466877619
  C   0.78142269613455      2.48127431715247     -0.61197595420527
  N   1.83540048762220      1.73138216324464     -0.66641770576231
  C   2.12345920435173      0.52270486182837     -0.17757124727296
  N   3.37512152996292      0.19153765343683      0.10652290764251
  C   3.31325819933831     -1.15768466673939      0.36780027209894
  N   2.14452986659878     -1.75455450823143      0.25080962505271
  C   1.28414101436351     -0.71439028369073     -0.02974035023597
  C   -0.07024323059820     -0.89318752577821     -0.03699444989917
  C   -0.63246240107777     -2.23384046941505     -0.12951601912159
  N   -1.92758034642013     -2.22021115061784     -0.24971506803860
  C   -2.30867375474381     -0.87762061110499     -0.15728936602642
  N   -3.64105052537291     -0.62578964984382     -0.20500531244023
  C   -1.22158527402601     -0.01333514323379     -0.01216778763090
  H   -2.98696598220007      1.03241891874326      1.46281148118685
  H   -2.58501924739730      2.65350551524630      1.29781540516078
  H   -0.85913329775056      3.40189141071663      0.27857614534787
  H   0.91139317382734      3.42133603463501     -1.15093063137771
  H   4.20678473967082     -1.70157330744766      0.64069480802431
  H   -0.04629908636658     -3.13719503186699     -0.17766570116876
  H   -4.20196634909854     -1.39771941774876     -0.52397109037566
  H   -3.94283168767033      0.29004519500775     -0.48929423788283
