25
Coordinates from ORCA-job ./opt_b97-3c_parallel
  N   -2.47294143779705     -1.83816759966026     -0.87098438029744
  C   -1.33482454180118     -1.33646373422237     -0.29819885144641
  C   -0.50336067765713     -2.34729641466224      0.30506639617894
  C   0.82554182162343     -2.41146206798897      0.53961610467475
  N   1.87244979513962     -1.75421924797126      0.00774751035815
  C   2.11696028939260     -0.52262685510780     -0.23607828305554
  N   3.37982882939163     -0.17881023885715     -0.71013395422988
  C   3.44239000204964      1.12670404648675     -0.56646119909689
  C   2.24673829762876      1.73892494668401     -0.07844223585129
  C   1.31712170724198      0.73990512655182      0.07221123057846
  C   -0.07657484437372      0.89309187429218      0.27148912225812
  C   -0.66137956801815      2.13993716863756      0.48291192465590
  N   -2.00515463076033      2.15207537014151      0.31182659942748
  C   -2.34451355851128      0.92192700323581     -0.07051091047338
  N   -3.67138321284723      0.61459414410618     -0.30627142324602
  C   -1.21244757936006      0.03259631438333     -0.11225245262326
  H   -2.98337967175192     -1.23892357111191     -1.50010645773335
  H   -2.44937108298436     -2.80508145278479     -1.14295993709814
  H   -1.06992485693541     -3.20047924898959      0.66461117438586
  H   1.14855930613751     -3.25877579052891      1.14016004781147
  H   4.34694716324137      1.66026764189297     -0.83295563390114
  H   2.08648336873778      2.80034753364664      0.01210751055153
  H   -0.14406723034249      3.05497858549844      0.72514420438517
  H   -3.97216875266584     -0.27816872762616      0.05906832600235
  H   -4.26657051747840      1.36361846935444      0.01777229208453
