29
Coordinates from ORCA-job ./opt_b97-3c_parallel
  N   -4.27601508089392     -0.13572663317697     -0.24740056384361
  C   -2.93910243086641     -0.24784387583382     -0.10136725201413
  C   -2.23985356540290     -1.47879894814067     -0.04663996875450
  C   -0.89047785672144     -1.21478344905315      0.07567695442048
  N   -0.03727626898497     -2.18544497881277      0.37134643371083
  C   1.22645550205404     -2.43519967612962      0.15199631319654
  N   1.64848565989285     -3.64115880965498      0.68130257756044
  C   2.20314054043900     -1.76608787719415     -0.63411180841247
  C   2.39431255455288     -0.43113195201575     -0.87030647984844
  C   1.75681110711510      0.75450162422597     -0.49332718560821
  C   2.43699487743201      1.96966378291851     -0.61893006121811
  C   1.66393123970477      3.01621521530285     -0.10414671573654
  C   0.43565311700510      2.50106464445555      0.29620699948990
  N   -0.60882301294417      3.24778586632897      0.81206024329891
  C   0.41765797864310      1.08236143165714      0.05164062929986
  C   -0.74009668929491      0.32101348242540      0.07130218958752
  C   -2.04763029327551      0.82677173624302      0.03925388043617
  H   -4.79944250101695     -0.92226883028680     -0.58648477509668
  H   -4.67550540996227      0.76775679741970     -0.42743380229185
  H   -2.67691059668477     -2.46245767183213      0.00180207612230
  H   2.61321820153025     -3.70975169052336      0.95434617492186
  H   0.99185791518953     -4.06081231938001      1.31824078841464
  H   2.99227565350085     -2.41593395041874     -0.99325642524137
  H   3.32009096326692     -0.23285989831653     -1.40335630423365
  H   3.43825824331575      2.06415349699679     -1.01183666215238
  H   1.96538418179181      4.05024224273914     -0.02282249736822
  H   -0.30798112448341      4.10935825155076      1.24002238772698
  H   -1.21873141891214      2.72788481893971      1.42629706805268
  H   -2.31281768859032      1.85656827296586     -0.13100313221930
