25
Coordinates from ORCA-job ./opt_b97-3c_parallel
  N   4.25268236771505     -1.33996599896802     -0.39295774802993
  C   3.05430735058264     -0.77749016121743     -0.14364441599988
  C   2.87063918032713      0.65059191732357     -0.00831732813604
  C   1.55165023140674      0.89095394432569      0.22206222069387
  N   1.06997649136293      2.07485071560090      0.67786513288736
  C   -0.05169562403388      2.64650904403393      0.42980037183457
  N   -0.98288924952729      2.46429020298105     -0.54088438967447
  C   -1.70235754554699      1.41145083886754     -0.73346534893148
  C   -1.66350820232744      0.14085817235677     -0.09982715477639
  C   -2.74997526758341     -0.74062845012486     -0.08706227942792
  N   -4.04258488606354     -0.49308828609635     -0.42868503173804
  N   -2.39801964309223     -2.02143336282983      0.28906232641576
  C   -1.09029214536274     -1.99460427003978      0.44685038828030
  C   -0.51888160185651     -0.69040502332393      0.24725116552347
  C   0.84222675694290     -0.45614139132210      0.20477481978839
  C   1.84472373696839     -1.43264112773232      0.04402382918745
  H   5.00721359419698     -0.77391037086637     -0.73502862142372
  H   4.31603114864936     -2.32473335773090     -0.57725675087563
  H   3.65832579292002      1.38557870458729      0.02660712701172
  H   -0.25583565895222      3.53484450785346      1.02829719512199
  H   -2.46448594755935      1.52209401322827     -1.50793668420852
  H   -4.68638225926048     -1.23292308770455     -0.20567402759229
  H   -4.40153391980748      0.43387671285670     -0.29048409298939
  H   -0.55059080997290     -2.87685524309168      0.75799999609607
  H   1.68025303397440     -2.48801368736710     -0.09482475343730
