29
Coordinates from ORCA-job ./opt_b97-3c_parallel
  N   5.84736261754407     -1.19332533401844     -0.16857675405365
  C   4.80833096900566     -0.67068485974530     -0.18383671656074
  C   3.52375927022125     -0.11415266838772     -0.17504677016795
  C   3.13127852820371      1.15485207979327     -0.60580654822521
  C   1.75711832758273      1.32048067312354     -0.41398590150095
  C   1.16039124534081      2.54286650892628     -0.66946314935542
  N   0.07713587847580      3.07660253542685     -0.16099894946882
  C   -1.08115944824991      2.70128587438230      0.27296829573150
  C   -1.83962533279615      1.52296623800629      0.05146631798561
  C   -3.22406949793621      1.74292093044927      0.26770324012574
  N   -4.33634448472528      1.99686912020430      0.48848280380812
  C   -1.41497244651032      0.19720700690201     -0.14934139370479
  C   -2.29297095917085     -0.88083571007263     -0.29590924050793
  C   -3.63932888553269     -0.95423639469540     -0.65548118052777
  N   -4.73157820326791     -1.19253672834824     -0.98069349756362
  C   -1.54051326413475     -2.06302115447140      0.01444705066364
  N   -2.04294751639487     -3.29223422731096      0.02587615460872
  N   -0.26251347312799     -1.80034340620605      0.28505955898006
  C   -0.07226154880080     -0.45538599617229      0.10804647015780
  C   1.21713479196267      0.04242290730069      0.09887302655305
  C   2.36688138770563     -0.82434762662327      0.24431525525892
  N   2.36084130570899     -2.08663604328313      0.66790874606090
  H   3.79653659960041      1.91220116043881     -0.98726652369796
  H   1.74425129444086      3.23240956749351     -1.27500901792771
  H   -1.60599726753207      3.46443143284265      0.84216765995288
  H   -1.45697483961708     -4.07811390757770      0.24165247977543
  H   -3.00742102393891     -3.45264130129636     -0.20815421235705
  H   1.44889416038305     -2.52875711189445      0.72519239935052
  H   3.19845186865765     -2.63882857678614      0.59167779100358
