30
Coordinates from ORCA-job ./opt_b97-3c_parallel
  N   -5.46486446476638     -0.10433700559879     -0.31044990413497
  C   -4.31286152014538      0.04358973790180     -0.22820175664516
  C   -2.95427677305752      0.34018085552784     -0.14049277998413
  C   -2.41812731985510      1.67575799183220     -0.10252864093602
  N   -3.15868403874429      2.77928572879149     -0.21568364097067
  N   -1.10678036667431      1.69644242906274      0.06975905496642
  C   -0.67170062726389      0.38138377500569      0.10412838392474
  C   0.66394440490608      0.09635413584705      0.02720124681968
  C   1.66137544419881      1.15917319305299      0.02384776535024
  N   1.41368611338251      2.45785359355115      0.15176895521595
  C   2.93486658753872      0.58369972570151     -0.09350837115204
  C   4.14349232172247      1.27804404624871     -0.07852044202816
  N   5.15576081064699      1.85511757478196     -0.06685702576648
  C   2.78744366886316     -0.82463234765330     -0.19649012846999
  N   3.84660932546203     -1.64822338747784     -0.36854938125913
  C   1.41732148856798     -1.17405941549989     -0.14450955954040
  C   1.03953009665098     -2.49278560861049     -0.34258240640161
  C   -0.11942518473302     -3.23879256120532     -0.20945056417028
  C   -1.40314651788392     -2.91432472522544      0.23218503241261
  N   -2.11134588551406     -1.81579372651737      0.28462657511365
  C   -1.88824549863492     -0.53347474644258      0.07314498081346
  H   -4.15703630224199      2.71706674764760     -0.30299243257577
  H   -2.73852979612437      3.68206482104631     -0.08977545709370
  H   2.16029411418245      3.12714733479827      0.08509839760837
  H   0.43241892853310      2.72944677942083      0.15256589042519
  H   4.76445796248153     -1.25996001616678     -0.23592477024777
  H   3.76098046245367     -2.61475290764386     -0.11414360527223
  H   1.87722465721094     -3.12641266150977     -0.61729482240456
  H   0.02637768260650     -4.30534832048764     -0.32862534239553
  H   -1.97206121186606     -3.78076413747863      0.56825753939729
