27
Coordinates from ORCA-job ./opt_b97-3c_parallel
  N   4.42932805712437      1.16636806031271      0.18257877326690
  C   3.38746123784675      0.64429451358126      0.13610955771994
  C   2.17957878929054     -0.04659967485961      0.07909996802861
  C   2.09351987595948     -1.45968475764613     -0.05826716119574
  N   3.15406455064037     -2.27829474592300     -0.11057595675750
  C   0.74318691521166     -1.81977245210750     -0.11931055354438
  C   -0.06204256444913     -0.68328514409664     -0.01735292580480
  C   -1.46535695194567     -0.76764293947897      0.06250977429862
  C   -2.11968225356734     -2.00021820601643      0.19435450389475
  C   -3.50590050236283     -1.81812921481646      0.14173808886376
  C   -3.77409447672794     -0.46973268076257     -0.03130800254913
  C   -2.55807106959291      0.24988111639471     -0.05959609162433
  C   -2.61480823040033      1.62847136246629     -0.16835780279656
  C   -1.71053317094319      2.68101704633030     -0.11924372056645
  C   -0.33992316203101      2.76871043927411      0.04717573910135
  C   0.70943547588109      1.86518264129285      0.14261972150167
  C   0.87001185576212      0.49029356758960      0.07444412961618
  H   4.08467696456774     -1.90083862601124     -0.14071216365995
  H   3.04309210004822     -3.25518142124401     -0.30542001195447
  H   0.39342563006063     -2.83042273759649     -0.23712538080037
  H   -1.63562741454421     -2.95096789257745      0.33881663636685
  H   -4.24133895412229     -2.60326118162608      0.23338697874756
  H   -4.74844797949699     -0.01157923193102     -0.09543365177569
  H   -3.63716612819351      1.97556037043367     -0.28252261159095
  H   -2.18920931012552      3.65011694763207     -0.19955119036468
  H   0.00657763676647      3.79535943866146      0.09415902069948
  H   1.66399958094344      2.36948177562451      0.25071216037939
