31
Coordinates from ORCA-job ./opt_b97-3c_parallel
  N   -1.11717432346004      5.09663363925956      0.69076755509798
  C   -0.78017856338441      4.00657807432002      0.47204373727495
  C   -0.37594675124942      2.66661827085588      0.20302579209851
  C   0.98106844839612      2.53489291336889     -0.13422908156624
  C   1.84698880549103      1.48597790545723     -0.34021160695589
  C   1.82135059326457      0.10250401397679     -0.15546434405577
  C   3.02248596158421     -0.61637523576657     -0.18559692322110
  C   4.31020054525184     -0.13337223831389     -0.41011017159982
  N   5.41098956177647      0.20247996434603     -0.59422405648821
  C   2.75027645198666     -1.98558107588654      0.16420472780617
  N   3.70092479446013     -2.91592702859717      0.27635213658530
  C   1.38050015552128     -2.13052536234470      0.36208684299710
  C   0.74034520248224     -0.90469632035025      0.13205456930181
  C   -0.65121899307241     -0.78430004051537      0.04665246794090
  C   -1.46600531196484     -1.92255684297297     -0.00305413294670
  C   -2.81094247554973     -1.55134358284302     -0.08359499946828
  C   -3.91847139194627     -2.39890909731255     -0.21641030229601
  N   -4.87332408048761     -3.05315113052060     -0.33081650912017
  C   -2.89533321792781     -0.13862204243066     -0.06733993206637
  N   -4.06474836423414      0.55614257110570     -0.09488034389564
  C   -1.57618241548134      0.39126165538640      0.02498240292140
  C   -1.43060039196607      1.74793788806793      0.21878628379951
  H   1.47004885310734      3.49590846488451     -0.23838043291236
  H   2.84029571900785      1.83121574140901     -0.60426149266420
  H   3.48390482320972     -3.85560431540683      0.55158671942855
  H   4.66714845207243     -2.68347545892662      0.12515833054580
  H   0.89974101443509     -3.05192713898321      0.63976711732172
  H   -1.12739984752908     -2.94158562809704     -0.04932230173658
  H   -4.07265918032792      1.46031178391752     -0.53220468632355
  H   -4.89888984080255      0.02162891850677     -0.27174664770247
  H   -2.37589956386347      2.24419133990596      0.40845218329973
