28
Coordinates from ORCA-job ./opt_b97-3c_parallel
  N   0.83579472018638      3.04436324613765     -1.46230356579240
  C   0.99888142440652      2.09839644398825     -0.49287626537097
  N   1.99353862612230      1.28048359548526     -0.61872124217925
  C   2.13109741266765      0.11223743267686      0.04397077095138
  N   3.32730355426617     -0.38599854708548      0.30569372164868
  C   3.12908438222314     -1.68867829669422      0.70199270110771
  C   1.82450720235727     -2.10760724818739      0.59758628549948
  C   1.07811011458121     -0.94902060390397      0.22511717979506
  C   -0.27014248253922     -0.85070702201660     -0.02433478444186
  C   -1.13452429659800     -1.97924216920340     -0.44471722946134
  N   -0.69005689634996     -3.20762521861384     -0.73299059477042
  N   -2.40045241445209     -1.62910882351215     -0.59200161154936
  C   -2.44578726255484     -0.30252644111232     -0.24134771572345
  N   -3.64182668453208      0.30428683887575     -0.19390607358833
  C   -1.18139089375092      0.24691975942749      0.05492251829920
  C   -0.92241328956482      1.51334328613981      0.70302637231787
  N   -1.91512804995045      1.97310696245290      1.55398769658217
  N   0.12236827107035      2.25417974116750      0.56665204105272
  H   1.60806198140763      3.14747953897731     -2.09879033475273
  H   0.36434497452761      3.88941750508652     -1.19308564458200
  H   3.96363167545009     -2.26052283891505      1.08275340279184
  H   1.42634581882993     -3.03914979458988      0.96730828982497
  H   -1.30718919854309     -3.82528210288435     -1.23120511226186
  H   0.30200344734779     -3.35361045742762     -0.81934393883590
  H   -3.69546011940530      1.29854297963720     -0.06523420496327
  H   -4.43649321612686     -0.18669791409764     -0.56128690323983
  H   -2.36255292587788      1.26755856911612      2.11802510797860
  H   -1.62985672729850      2.78373790327529      2.08195706146330
