26
Coordinates from ORCA-job ./opt_b97-3c_parallel
  N   1.98675252310436      3.39443450717354      0.00485248496778
  C   1.22155898893224      2.25342457375146      0.02946459088285
  C   -0.13773224875495      2.42641644217204     -0.15259505119571
  C   -1.24966096882603      1.57872889985788     -0.12024266210170
  C   -1.48657943938397      0.23315811633015     -0.07969529999963
  C   -2.83938272701878     -0.26767047855292     -0.18312700496312
  N   -3.99389354349124      0.47939068112603     -0.15887919952153
  N   -2.87584478811667     -1.57528177781658     -0.40455492767598
  C   -1.57648760370061     -1.99698607373730     -0.40911155412819
  C   -0.65563330010799     -0.98596173289040     -0.18571751019266
  C   0.72655621997527     -1.21028826760609      0.00388711666376
  C   1.33719415382493     -2.44846964781322      0.02758985622452
  C   2.70120161197442     -2.24143957192151      0.35224999592646
  N   3.02536307032685     -0.97658982506244      0.53090677744373
  C   1.84965802100664     -0.25698288331214      0.29869200255274
  C   2.00889427402820      1.09061351146097      0.31635015372306
  H   2.97716647585227      3.30617802242323     -0.13166591040480
  H   1.58166345778521      4.23542918211897     -0.36538286635844
  H   -0.41547749365835      3.46319923480565     -0.31330067548067
  H   -2.16689113365222      2.15408054973934     -0.20587557607146
  H   -4.81504244011807     -0.10523855384810     -0.16558300751481
  H   -4.04459864683604      1.18761759511395      0.55441042821326
  H   -1.36456510887626     -3.04502984839468     -0.54857129598735
  H   0.86483237031856     -3.40455466436298     -0.12214960308422
  H   3.44910086392805     -3.01699720767312      0.46195393831683
  H   3.03728435218398      1.33222860501831      0.56291743786533
