24
Coordinates from ORCA-job ./opt_b97-3c_parallel
  N   3.79656867127302      0.26718081569198      0.03480569336983
  C   2.58589621117577     -0.32517755563317     -0.08346615929424
  C   2.42476874233192     -1.74130247388053     -0.35726730568561
  C   1.10409238140061     -2.01603191551381     -0.36448381178635
  C   0.34919034568055     -0.77714979796833     -0.17182910678414
  C   -1.01078948070561     -0.76339580712816     -0.05544214856272
  C   -1.81004562868766     -1.94853961110393      0.20767656529004
  C   -3.09001113408693     -1.55378684658053      0.42161904142061
  C   -3.20106496693477     -0.12875421896465      0.19538441744266
  C   -1.96911808986944      0.38638574483857     -0.08688475977248
  N   -1.79448583097197      1.64467625180104     -0.60267219728136
  C   -0.80552437952244      2.44214534189453     -0.44596199146393
  N   0.24520063299835      2.46178024996984      0.43164387019624
  C   1.15526310998624      1.57333568823458      0.58668725191349
  C   1.33535072511805      0.28219824872445     -0.00594972260578
  H   3.84983707588968      1.23032323887536      0.31589979814552
  H   4.59548332493144     -0.29627603341886      0.26369630209437
  H   3.23574384990402     -2.43226795563666     -0.53238531271840
  H   0.65451699633148     -2.97385396675244     -0.56212427668998
  H   -1.41967820621555     -2.94429618068666      0.33116739388604
  H   -3.90913483913347     -2.19570655429093      0.70967756278163
  H   -4.11786211274123      0.43847523758423      0.18007736971826
  H   -0.85949008198641      3.36856017558814     -1.01720967758762
  H   1.92838177903444      1.85261108225590      1.31018596247394
