30
Coordinates from ORCA-job ./opt_b97-3c_parallel
  N   3.67244673039408     -2.35124727331454     -1.11060970062768
  C   2.93785105971706     -1.58856725139064     -0.62420564462113
  C   2.08444367583827     -0.63246206041945     -0.03575839008655
  C   0.73778792248845     -1.05738040738302      0.19275403861702
  C   0.40835466895835     -2.38979953833386      0.26208077108716
  C   -1.00392936548961     -2.53396578378433      0.23435929640730
  N   -1.66928033540097     -3.68570809685476      0.36252348620025
  C   -1.59395288027541     -1.26146280648635      0.08383448371211
  C   -2.96189374007504     -1.08449958986608      0.26120405166392
  N   -4.12208861848989     -1.01613779601929      0.37364401609582
  C   -0.54254613012821     -0.28291166941716      0.05095576204724
  C   -0.70623609247211      1.06821419899271     -0.14906929396193
  C   -1.88122556676213      1.73434715674456     -0.75171753004811
  N   -2.77459549965058      1.19485713429364     -1.59131563780356
  N   -1.87969609459986      3.05171710674595     -0.53704809061805
  C   -0.77117502168605      3.30009126922415      0.19556234715585
  C   0.04526839176817      2.18915407408895      0.39087532060181
  C   1.19747498939920      2.22738086788784      1.20792050891583
  N   2.27376511740106      1.51931382618090      1.18591116631054
  C   2.68432342691096      0.59562174258981      0.28545125136164
  N   3.89214179906938      0.89726219935030     -0.24128424674681
  H   1.11221656055554     -3.20570025680637      0.29149011488098
  H   -2.67295400822443     -3.68771214993903      0.42670956148996
  H   -1.18804276045712     -4.53413415671359      0.59578607506668
  H   -3.53755111727668      1.79154010582358     -1.86387422020723
  H   -2.95914366678020      0.20917219988114     -1.59228302287741
  H   -0.57976497818394      4.29636126641691      0.56912660479489
  H   1.20145207949296      3.00947334792068      1.96688233582724
  H   4.38962348697317      0.22072750788977     -0.79475478334154
  H   4.42627376228579      1.61438183419624      0.21502261050375
