33
Coordinates from ORCA-job ./opt_b97-3c_parallel
  N   -5.42557625361523     -1.37368129762686      1.46941494032953
  C   -4.37517573543196     -1.05360199964918      1.08700782643959
  C   -3.15653653044843     -0.56964541408490      0.59427124730486
  C   -1.93703580209900     -1.18698793812018      0.55867539963929
  C   -0.95959585228122     -0.25391691343760      0.05066211871212
  C   0.37765202308873     -0.59446544716386     -0.09067148920985
  C   0.85966410563473     -1.93886449089235     -0.23690812882830
  C   0.13924809864867     -3.11229350346868     -0.46615223354834
  N   -0.38829805746889     -4.13316247484234     -0.65630400460020
  C   2.25467402860354     -1.90542409006418     -0.28662565944560
  N   3.08788151572894     -2.92380664289271     -0.48639184873604
  C   2.68123686423024     -0.53112805112753     -0.12039757732719
  C   4.03766255393937     -0.18860629533933     -0.12166438805467
  N   5.18819104945414     -0.03026210276271     -0.18338476633882
  C   1.56453171790585      0.28126470968744     -0.01241485937834
  C   1.63149581785097      1.65726067210669      0.41442403614052
  C   2.67850054140699      1.99752978595974      1.31125162733962
  N   3.50465724335389      2.28476786614965      2.07557775849642
  C   0.82281485992669      2.70347372827483      0.03737569115938
  N   -0.11576673345669      2.76870051610792     -0.90537019288206
  C   -1.16775572691571      2.05117936550325     -1.10443271093311
  N   -1.97542422576526      2.42072854298345     -2.15106696314045
  C   -1.66354848321142      0.96530986546116     -0.27952380015047
  C   -3.00861170652266      0.76243766167331      0.01412712548299
  N   -4.06379149643095      1.56539958658678     -0.21405471378829
  H   -1.72299346787559     -2.16585611745445      0.94734121140041
  H   4.08101593019611     -2.77547050784110     -0.53209004223945
  H   2.73987632559410     -3.86100543180685     -0.59098645827054
  H   1.07324464951170      3.66623562514396      0.47345058499103
  H   -1.58303321405146      3.10864370887590     -2.77391246894065
  H   -2.51683620681752      1.69691306038856     -2.59221443746403
  H   -4.95892611051350      1.33360310686447      0.17963406261820
  H   -3.92082467086855      2.51082853450829     -0.52050831817794
