34
Coordinates from ORCA-job ./opt_b97-3c_parallel
  N   5.25614239057449     -0.39314354854499     -0.55924060940781
  C   4.14117775114307     -0.10507900821535     -0.38969254666447
  C   2.83154611443692      0.32212905648992     -0.16235989723285
  C   1.67318189250144     -0.45456299310983     -0.19910093721218
  N   1.70445860937696     -1.72605338642740     -0.65692500454917
  C   1.18666491253743     -2.76690198200622     -0.10240835110284
  N   1.48055450721156     -3.97225692077096     -0.65470094379722
  C   0.34011060543205     -2.84624823419803      1.09358968073141
  C   -0.82905754590127     -2.19901085424853      1.23247285300703
  C   -1.40631935326352     -1.15493304541707      0.43680759259487
  C   -2.79968701167451     -0.98721050624439      0.35720082820406
  N   -3.73460846733942     -1.84920725033357      0.79205803460470
  C   -3.11840290996812      0.29508652009828     -0.20044787811816
  C   -4.39135121495312      0.73682560440321     -0.54968622981090
  N   -5.46437987638897      1.09518945161312     -0.83202478532344
  C   -1.91412663527262      0.95350502234836     -0.43443592817685
  N   -1.78756215727057      2.09656276007304     -1.11049063584430
  C   -0.80508039904387      0.06907741062186     -0.01406690768020
  C   0.52661845707392      0.43986532902809      0.01184373469000
  C   1.06972107277685      1.76974616339353      0.18487376885573
  C   0.44000347926813      2.91662178575405      0.65814159577765
  N   -0.04673529702082      3.91518010477889      1.01822053923915
  C   2.46921505288911      1.68240690992624      0.11586746219729
  N   3.34568156570345      2.67427303327033      0.29946471569408
  H   0.89083938694485     -4.76088255287189     -0.46306083941240
  H   1.98133691458813     -3.96730548893985     -1.52756059085037
  H   0.59575007275649     -3.62150549479289      1.80492124564741
  H   -1.44229907645574     -2.52079080000033      2.07336325640947
  H   -3.50173818310822     -2.81480250236146      0.93085863224423
  H   -4.70629862636493     -1.63840279500708      0.64597659574630
  H   -2.61003119377768      2.64211515238133     -1.30440871640355
  H   -0.91531854387640      2.59253388933837     -1.12210533075469
  H   4.32931448399311      2.47919331732714      0.35453792724090
  H   3.03004325417167      3.58858384694410      0.57144452185684
