28
Coordinates from ORCA-job ./opt_b97-3c_parallel
  N   -4.50119772093080     -1.52395571766861      0.01180291230141
  C   -3.52148510647287     -0.89163301911377     -0.01578904802780
  C   -2.39032724463801     -0.08102991434809     -0.05616346761523
  C   -2.43246723078490      1.32876244049019     -0.28237446527363
  N   -3.55686345365319      2.00815108160161     -0.54171530536434
  C   -1.12977173911935      1.83695353421331     -0.22255054279401
  C   -0.23156369318185      0.79636525254272      0.01743382145198
  C   1.13990810697517      1.00162551076573      0.22614365978706
  C   1.67883594005080      2.28614515184110      0.49601032992139
  C   3.06025203134096      2.21769790076694      0.48369692382502
  C   3.44287913597104      0.90298493512443      0.15104019016724
  C   2.29643895446203      0.12100590280416      0.01736459711061
  C   2.35337637787804     -1.24682385033672     -0.37670324677653
  N   3.36774345069248     -1.60006547534005     -1.20967403703648
  N   1.67535426666060     -2.26480226165162      0.11092233615456
  C   0.48877932354596     -2.44356747320034      0.62975537565521
  C   -0.71370404259153     -1.74661453632034      0.52959473658132
  C   -1.04731009552896     -0.46506480228643      0.12431562330151
  H   -4.44791813814356      1.54436871833631     -0.52302393864031
  H   -3.55207711654189      3.00681605981421     -0.62679628034254
  H   -0.86179475890708      2.86464242897460     -0.39740084033690
  H   1.09262783131636      3.15909466784608      0.73039451997424
  H   3.73665679148316      3.02946267715831      0.70448104615969
  H   4.45445678679518      0.53517202272826      0.08010991016341
  H   3.76953177401864     -0.91128797813704     -1.81662104599372
  H   3.45577350875822     -2.57017870836899     -1.45643471720317
  H   0.39857320754421     -3.39806505460784      1.14380597815209
  H   -1.56735419459885     -2.35275694942829      0.81300237239782
