29
Coordinates from ORCA-job ./opt_b97-3c_parallel
  N   1.97530477540179     -4.17521300369187      0.43123612936226
  C   1.06710449052756     -3.44989448624525      0.37656712769384
  C   -0.02949619905070     -2.58387250816559      0.29878314065972
  C   -1.35778133257219     -2.92956348076514      0.49950744511259
  N   -2.19940033196636     -1.86896647286001      0.42238187007652
  C   -1.45338693188353     -0.77663196226172      0.25128983359306
  C   -2.09131413696907      0.44082727288356     -0.10419936488657
  C   -3.39523954196422      0.33778825583068     -0.63909846714474
  N   -4.45701059833337      0.38252725338822     -1.11260721055944
  C   -1.60232651099380      1.75414507288082      0.04647230463944
  N   -2.26230267538053      2.77027505666898     -0.54544163402263
  N   -0.61047884389949      2.15988591722336      0.87152384585780
  C   0.65529280985936      1.93035878406949      0.80409433097296
  N   1.45912621950962      2.68046503771323      1.63215804007888
  C   1.34657505869385      1.00938938792735     -0.06696644537461
  C   2.62480448741178      1.18791730637858     -0.60573239543738
  N   3.39276117915479      2.28238432678742     -0.65313342597920
  N   3.14001791658669      0.01211810213470     -1.15618138135410
  C   2.26316800422779     -0.91394159949735     -0.88819092808564
  C   1.07330475591390     -0.38784364686213     -0.21531688256671
  C   -0.01235112392651     -1.15522653695817      0.14468714290414
  H   -1.73435845250029     -3.91491913655860      0.72785027468078
  H   -2.08366759949692      3.69932581497034     -0.20979910844527
  H   -3.13937076125805      2.59914570122936     -1.00992708358559
  H   2.28273502086012      2.22396099634308      1.98832814925449
  H   0.95874752137714      3.22800801363569      2.31454857792760
  H   3.05926337175871      3.16883906144597     -0.32163054177205
  H   4.27012179042307      2.23128922077329     -1.13872069361806
  H   2.40071190039012     -1.93212196611612     -1.21477856258570
