27
Coordinates from ORCA-job ./opt_b97-3c_parallel
  N   5.15977767680112      1.10304317652087     -0.10948045533033
  C   4.02016470988285      0.86918323033342     -0.05878374632530
  C   2.66932322141824      0.51615891803634      0.02093954691799
  C   1.54540339290850      1.30439214547917     -0.33159535441185
  C   0.37710298704071      0.58566371046152     -0.14579228383974
  C   -0.89722864730940      1.20689480023929     -0.09111786341093
  C   -1.12681745338769      2.56808541983802     -0.13306816525505
  C   -2.50857263609199      2.77331162761002      0.11370947450460
  N   -3.19435395197002      1.66197040805907      0.29746625724985
  C   -2.27005801926707      0.63288868518402      0.13314152020169
  C   -2.78416206096878     -0.61375239275966      0.02956698059686
  C   -2.17730365353306     -1.86716048688958     -0.34910483028454
  N   -2.98962325231335     -2.66919344054823     -1.08678058646013
  N   -1.04709238630446     -2.39506965913138      0.01416969102268
  C   0.09767437889559     -1.93737330825674      0.49614239279976
  C   0.78557462617146     -0.76127947819547      0.32206563632894
  C   2.21665266380338     -0.73823201875685      0.46094844967832
  N   3.02896294627399     -1.73355764344622      0.91629049631346
  H   1.61257528577577      2.33506201836574     -0.63518972055787
  H   -0.38884368736275      3.34537338120263     -0.23711761693161
  H   -3.00151224653514      3.73549163710602      0.17455505130605
  H   -3.86282347560809     -0.64521127649933      0.13071128537281
  H   -3.77261832254745     -2.27519604136508     -1.57495027457352
  H   -2.60272927024416     -3.52892811906668     -1.43610284177968
  H   0.64577639607526     -2.72277462976380      1.01338605065848
  H   2.71375495303605     -2.68279659688303      0.83326636424609
  H   4.01114434266013     -1.62297110587362      0.72406360266312
