29
Coordinates from ORCA-job ./opt_b97-3c_parallel
  N   -5.57697752589870     -1.01722018820698      0.46364864202776
  C   -4.44453000385425     -0.80436099341916      0.31222577129754
  C   -3.07346945889076     -0.56315774666365      0.12070515107594
  C   -2.44399609787089      0.67192463698109      0.11469122969568
  C   -1.04844606340440      0.46432546774511     -0.01360136966617
  C   -0.14962608721061      1.52324023508745     -0.07772629011485
  N   -0.48599506426736      2.77448811607213     -0.39421063623594
  C   0.69254608670826      3.44969133828525     -0.32150238981378
  N   0.76517762743390      4.73465407041167     -0.64216431441437
  N   1.79316314788537      2.76375661403737      0.08562859496893
  C   1.32978962070910      1.53044405510085      0.28090402722279
  N   2.03426074948340      0.62148592778203      0.90969595867125
  C   2.10497696575754     -0.67836564123537      0.88949041135821
  N   2.81446201045215     -1.24061366697194      1.88625562362651
  C   1.64211078839662     -1.58078909214163     -0.15357327980612
  C   2.58151578081132     -2.52590943960497     -0.59931652492276
  N   3.33007537883183     -3.33217452319335     -0.98489654669344
  C   0.32310146226686     -1.71828809258812     -0.59515640634311
  N   0.04550903532429     -2.73841351328551     -1.43642428303411
  C   -0.83461920849465     -0.97433923203388     -0.15293162802880
  C   -2.08420477005655     -1.57125455397807     -0.08542888059953
  H   -2.90735029867574      1.63418641609756      0.24256518215521
  H   1.64798079903643      5.21045195664964     -0.60641782631758
  H   -0.06165547259895      5.22429325901990     -0.93197098703970
  H   3.36274507313948     -0.64881711807277      2.48597405927347
  H   2.96034988760548     -2.23262933576985      1.92068339358948
  H   0.77344421607718     -3.34671710792842     -1.77067548438204
  H   -0.82987525305966     -2.74392907671522     -1.92419381231900
  H   -2.28931445483671     -2.62794098356108     -0.13771326193135
