34
Coordinates from ORCA-job ./opt_b97-3c_parallel
  N   5.80435746685339      0.90434497219626      1.07151521162180
  C   4.70651415066796      0.69111890785072      0.75265979346225
  C   3.41918630571865      0.33412412212874      0.33146465492993
  C   2.25605578321203      1.05247577925850      0.41980917380210
  C   1.16563509940593      0.23360606964251     -0.04224929077465
  C   -0.12950864968016      0.71022405461464     -0.11649652991060
  C   -0.48534686731403      2.10059816322335     -0.13728163716642
  C   0.32434202203190      3.22240762580039     -0.31941003845755
  N   0.92086498342037      4.21303821892710     -0.46135146035805
  C   -1.87735792404834      2.20265613103916     -0.09283453917943
  N   -2.61158124349804      3.31050582276858     -0.15481987412581
  C   -2.42849544868008      0.86906948517037     -0.01170899146733
  C   -3.80961713261069      0.65168439431686      0.01395301336971
  N   -4.97104456146348      0.58792471467333     -0.00865711182331
  C   -1.39500901743510     -0.05720900800864     -0.04635143572608
  C   -1.62746538179393     -1.44889848663467      0.23582177534785
  C   -2.63911457955453     -1.72448707072067      1.18325986489990
  N   -3.42984356653804     -2.04117045642547      1.97701779926410
  C   -1.13374447251141     -2.56627693401162     -0.44521109145439
  N   -1.76412702044432     -3.74973648453576     -0.27861968887243
  C   -0.04038657103360     -2.62490575243511     -1.37934641901578
  C   1.17942502188011     -2.04908531334386     -1.30000908849584
  C   1.72779593709273     -1.03978133408211     -0.46480398613054
  C   3.10544931632424     -0.95713036124486     -0.25577864606761
  N   4.04949719097708     -1.86590763603962     -0.58140393094292
  H   2.16510611372170      2.03298653268344      0.84993652145001
  H   -3.61556493554807      3.26411066365787     -0.15335930927591
  H   -2.17468392439715      4.21242286385231     -0.23409839350391
  H   -2.53659585894165     -3.83723666356603      0.36080934912820
  H   -1.33102721773925     -4.59602334847752     -0.59695559029154
  H   -0.15620362154262     -3.39048714949879     -2.13745558699040
  H   1.89500956902269     -2.45259491059341     -2.01456950646348
  H   4.99975462166052     -1.69234998333777     -0.30161843037752
  H   3.79522288578997     -2.83283173685060     -0.66593547510341
