33
Coordinates from ORCA-job ./opt_b97-3c_parallel
  N   -2.68986572784774     -2.11675125211365      2.07075570672606
  C   -1.97132557980912     -1.73403916958942      1.23763926118438
  C   -1.04825766294235     -1.35555767335124      0.23817159603901
  C   -0.34948582513621     -2.38001905530761     -0.36552399548296
  N   -0.69014400009516     -3.67356948085167     -0.12012792591982
  C   0.73256037216686     -2.25186484186300     -1.33178097770156
  C   1.85079599069943     -1.51193190232384     -1.21730474719812
  C   2.18527001896866     -0.45577439817511     -0.31448541250197
  C   3.51649765808240     -0.11137795081156      0.01212060612310
  N   4.62370587423095     -0.82540769730278     -0.25777953844837
  N   3.64808285532114      1.10955175297783      0.61997245813753
  C   2.42374368298531      1.60911656882015      0.63370107019068
  N   2.13986320088941      2.78575630815234      1.20675121272114
  C   1.42132554725513      0.68842375050223      0.04958811773792
  C   0.08623362658496      0.99726758473837     -0.12488968968124
  C   -0.45827954572282      2.31841624464695     -0.24300039841752
  C   -1.82558872243776      2.21502791324285     -0.35457574543028
  N   -2.75390229480699      3.18869809885792     -0.52920886458105
  C   -2.18738397147734      0.80724699249080     -0.24068268298273
  C   -3.51400586944861      0.36906895852964     -0.29411154725784
  N   -4.64225289070978      0.09941063171374     -0.39083434232304
  C   -1.03211397104167      0.05156380040423     -0.13300623957297
  H   -1.36738693973247     -3.87497332366106      0.59786112435436
  H   -0.01089882923645     -4.38949359491965     -0.30261465129576
  H   0.70306809624363     -2.98573188095249     -2.12946794369262
  H   2.62548816446690     -1.74457412015932     -1.94728255890136
  H   4.55075793254049     -1.81249866925248     -0.41972733067810
  H   5.49186578978420     -0.48685884341581      0.11755872532737
  H   2.84928082157561      3.20443703156350      1.78369645561290
  H   1.17755948025391      3.00369530822804      1.40561597368267
  H   0.11298024875787      3.20765473717005     -0.45598351096905
  H   -2.44835439385995      4.09427329031382     -0.83633208488026
  H   -3.67027528230262      2.91605386529815     -0.84195588602044
