27
Coordinates from ORCA-job ./opt_b97-3c_parallel
  N   -5.35874287152844     -1.57768117065514     -0.10195556815288
  C   -4.28829413058022     -1.13534596562916     -0.00015023710503
  C   -2.99388355896214     -0.60471273156111      0.12662584024324
  C   -2.66633020908212      0.64845699916852      0.67764857739318
  C   -1.28611140137553      0.85064704948487      0.55996746781987
  C   -0.73116850706194      2.07199521723987      0.98241727988525
  C   0.42486716683586      2.74539278330589      0.71785144968941
  C   1.50218004721391      2.39678747701221     -0.15099926880515
  N   2.08223387217599      3.43888449371882     -0.80723687614578
  N   2.11953333141652      1.25419903971752     -0.31602358398606
  C   1.91105301757577     -0.01222219382303     -0.08857967979144
  N   2.96907441949895     -0.83993911435781     -0.02806664438445
  C   2.45303987114594     -2.08691531628133     -0.01542754192512
  N   3.26719090339941     -3.13847622455553      0.08083769105001
  C   1.03399627585842     -2.12454972324834     -0.08719809419878
  C   0.61064254237344     -0.81657153353855     -0.07653812890780
  C   -0.72510080202738     -0.37360462249027     -0.03065733729197
  C   -1.80459944714162     -1.22979198263157     -0.28308652301985
  H   -3.37084302061683      1.36075505567661      1.07563900791806
  H   -1.43065333213554      2.65461758972997      1.57406590469168
  H   0.48315719808067      3.75455846598368      1.10716886969579
  H   2.84622499949002      3.22547720464809     -1.42502620796263
  H   1.55564845047853      4.27477217083541     -0.98160569129877
  H   2.92087438715533     -4.07890007900123      0.06909667847048
  H   4.25672531055384     -2.98339024094038      0.15809411630146
  H   0.41964809244008     -3.00717537138152     -0.03076966175978
  H   -1.74166023718092     -2.21397448492643     -0.71601149492312
