23
Coordinates from ORCA-job ./opt_b97-3c_parallel
  C   -0.70132529063354     -2.69332029465783      0.00017280438361
  C   0.69440894787936     -2.69926000905587     -0.00045950491720
  C   1.68060084059274     -1.73656718688587     -0.00128177653542
  C   1.72746047006520     -0.33962078571366     -0.00182964572750
  C   2.94718191483233      0.33117931361583     -0.00255201845938
  C   2.65945197758750      1.70335189705005     -0.00292971700474
  N   1.35485177330469      1.96974573950061     -0.00254564238175
  C   0.70516696924569      0.76345449276170     -0.00186598505719
  C   -0.67812522911730      0.77317399652922     -0.00142995499852
  C   -1.39888991014899      1.99277016593362     -0.00170532991638
  C   -2.75161176867749      1.72111656149555     -0.00103024121484
  C   -2.95024223582506      0.32626878451213     -0.00028610215788
  C   -1.71885439637318     -0.32283802008498     -0.00048483451744
  C   -1.67572865362280     -1.71518355886332      0.00016121708061
  H   -1.11831152992837     -3.69396637678198      0.00081325558856
  H   1.09984522383636     -3.70517632757547     -0.00022270110428
  H   2.67760975106334     -2.16557286714635     -0.00154989233403
  H   3.92145904892904     -0.13052120751396     -0.00274095721193
  H   3.37766621268005      2.51248171997223     -0.00346903447205
  H   -0.92768666099265      2.95875390983803     -0.00233681755571
  H   -3.53800377106577      2.46129607463515     -0.00105676305759
  H   -3.90414702978534     -0.17780239577920      0.00034516781529
  H   -2.67684264314580     -2.13567657368562      0.00080817325576
