32
Coordinates from ORCA-job ./opt_b97-3c_parallel
  N   3.37402559866207      3.60280315793317      1.77079315709892
  C   2.69575749424609      2.84106134530940      1.21509865244804
  C   1.88529853850759      1.91061431498752      0.50953115476370
  C   2.60968533251559      1.09760440167297     -0.45728250987716
  C   2.49983322361120     -0.22356512716230     -0.69560451074365
  C   3.37128205715126     -0.77178976950965     -1.68170778493741
  N   4.07459214201852     -1.24754398721716     -2.47308711228339
  C   1.66337898314009     -1.20974977922300     -0.00465292308652
  C   2.13106611104220     -2.46879946025888      0.32408253337141
  C   1.07212496283480     -3.24434805084765      0.85902646973863
  C   -0.09428372002074     -2.50669494686435      0.77882665178649
  C   -1.29972931173173     -2.88116677364172      1.39030593561807
  N   -2.30737199251983     -3.20467324094140      1.87450769666099
  C   0.24558419501411     -1.18866680253368      0.22918393126776
  C   -0.65307911801424     -0.16517653271724     -0.04102002860370
  C   -2.07027088466249     -0.40809489185786     -0.45883685938602
  N   -2.51612177848883     -1.55802248039844     -0.92787825102690
  C   -2.75818174042545      0.79878426593243     -0.44739357801738
  C   -4.07038211259881      1.02507232147038     -0.85758626803863
  N   -5.16675852503156      1.23109741612902     -1.19235899116605
  C   -1.80162655228960      1.80697709475469     -0.10866324714093
  N   -2.10553903520817      3.09291689328972      0.00522193765314
  C   -0.51016791070377      1.23163224362983      0.09399250484882
  C   0.54228933371831      1.99165363440122      0.68726089046176
  H   3.37856267904598      1.63154527863554     -1.00280462917603
  H   3.14237538235100     -2.81235976602068      0.17524806280309
  H   1.15764341900017     -4.22640076033585      1.29359869791281
  H   -1.95256987975663     -2.38898489873325     -0.86838647660987
  H   -3.49365856181076     -1.67852722891247     -1.13703588386012
  H   -3.05236187846850      3.41024177304585     -0.11765718016196
  H   -1.39188865122996      3.79169821862737      0.11135752670866
  H   0.21753005600214      2.78085692705644      1.36003255117357
