30
Coordinates from ORCA-job ./opt_b97-3c_parallel
  N   -6.08341395460992     -0.41913171883838      0.75053722861668
  C   -4.93924598408233     -0.40913523565397      0.54924969740340
  C   -3.55516892660075     -0.38729031728997      0.30395220178663
  C   -2.76212941272896     -1.48653284326260     -0.03935545480214
  C   -1.41911697308205     -1.06457335584303     -0.13432101522979
  C   -0.44534197006805     -2.00772860550025     -0.42050409189491
  C   0.93964408673601     -2.11201130358095     -0.36154324039993
  C   1.39569973603701     -3.40711460457490     -0.73443163354599
  N   1.79070782093007     -4.46069586456151     -1.02706638626146
  C   1.98008854010899     -1.25807927483143      0.14449581087732
  N   3.12574164885465     -1.89482635561880      0.45388221404982
  C   2.00554782430358      0.16298729928421      0.30034910319067
  C   3.27863250406924      0.65565989761565      0.71105878318295
  N   4.34886818517091      0.91028287556003      1.08524896818267
  C   1.11772190741202      1.20835250052774     -0.01074919454456
  N   1.67211244323396      2.42585325929462     -0.10516059514281
  C   0.65884668600234      3.30088199351584     -0.29831540475701
  N   0.93002269539119      4.59078470586986     -0.48108898639045
  C   -0.60972141393664      2.67576612803164     -0.29923215909535
  C   -0.38735735909761      1.32847366262913     -0.10744879545477
  C   -1.40968945442394      0.38221472682589      0.09526668878452
  C   -2.72805166437606      0.75302694491359      0.36934864934840
  H   -3.10789165434945     -2.49980255749912     -0.16174624699942
  H   -0.89005259577858     -2.95172710189136     -0.71477199318690
  H   3.21262188148444     -2.88807662488858      0.32697804259176
  H   3.95103440537035     -1.38175862714724      0.71438256763536
  H   1.88822135096584      4.89448355741026     -0.46607211396233
  H   0.20879507119060      5.26726678586977     -0.64611511725001
  H   -1.56031833008428      3.15582071075227     -0.45312847707297
  H   -3.07155423204260      1.74574804968161      0.60446016324064
