31
Coordinates from ORCA-job ./opt_b97-3c_parallel
  N   5.45196841437999     -0.03078462709081      0.52300406751131
  C   4.30642967147457      0.13147264946930      0.37737073965620
  C   2.95137296948270      0.39299745992970      0.20285021609672
  C   1.88806292836518     -0.52185139411022      0.07684245260781
  C   2.12666661606930     -1.88723059711667      0.07785140361205
  C   1.36765587109222     -3.02638056519834     -0.16685328110332
  C   0.02553436538768     -3.30488235616496     -0.33274380077515
  C   -1.13269702278702     -2.53984528398654     -0.19243838582648
  C   -1.44394314631861     -1.21019374030719     -0.01970387575961
  C   -2.80649672143747     -0.84165999716817      0.12031386941710
  N   -3.87287074143091     -1.67574518991799      0.25624497405418
  C   -2.93261779935300      0.55829687448366      0.00739877081603
  C   -4.12372112367968      1.27816209175637      0.10618074644043
  N   -5.11872108314355      1.87749189124310      0.19483099620493
  C   -1.65259388753204      1.12513354341105     -0.17093758856403
  N   -1.42252829656119      2.43062077502185     -0.31950855148291
  C   -0.66745214510804      0.07216513729014     -0.14007260490444
  C   0.67792484609686      0.35692744631358     -0.11877162131767
  N   1.08953760416633      1.67158900838962     -0.19335712338067
  C   2.40402648563009      1.69580295233297      0.00439764850980
  N   3.10734306739527      2.83079122296344      0.01922230331009
  H   3.17667835819969     -2.11298868373892      0.22619818205708
  H   1.98591975042130     -3.91601241598227     -0.22885710820531
  H   -0.17845673540043     -4.35127463017080     -0.52290456144048
  H   -2.01877499981521     -3.16373780648871     -0.25786810875237
  H   -4.75588097016677     -1.24170190012375      0.46620200990472
  H   -3.72952571129776     -2.54239499499732      0.74259779477774
  H   -0.44456559067035      2.70884401009144     -0.30177396610104
  H   -2.16742288908986      3.09014022425433     -0.17783169003932
  H   4.10776007316395      2.80922557558791      0.10014586412622
  H   2.66207409386679      3.69677251212417     -0.22277966294971
