28
Coordinates from ORCA-job ./opt_b97-3c_parallel
  N   4.72404584429144     -0.92876428658906     -1.58382356718657
  C   3.74455126082492     -0.94892724395085     -0.95979619753362
  C   2.54791207625093     -0.95642692802710     -0.19273679336683
  C   2.07577921343846     -2.19210078291208      0.14036561610648
  N   1.13196388020343     -2.54385026613560      1.04098857948898
  C   -0.08817095674183     -2.17643508971615      1.12098548776202
  C   -0.83898669429761     -1.25363751679478      0.30752965479893
  C   -2.19953855675740     -1.42210882425655      0.08040603220074
  N   -2.95736412783172     -2.50036927219887      0.29789312611157
  C   -2.76003934597642     -0.16254161238805     -0.43032227988655
  C   -4.09382691921942     -0.03524355624010     -0.84355747693827
  N   -5.21289305640451     -0.02720217384908     -1.15642832778775
  C   -1.77290258775292      0.76598201194706     -0.41903072931972
  C   -0.52936645014746      0.13010770004198      0.02188190951094
  C   0.64343275707073      0.83069828714611      0.16830052431255
  C   0.72529540715945      2.29482930426339      0.28922649927255
  C   -0.33411911648461      3.19573621524242      0.45766994577668
  N   -1.20499750737454      3.95586314332267      0.58838854811489
  C   2.04991705159216      2.63856310955415      0.37423515542351
  C   2.84321928164698      1.45876930277506      0.25663688486456
  C   2.03467336745210      0.35218191738363      0.17050840170867
  H   2.61920566231949     -3.04430770071627     -0.25328550816787
  H   -0.64815441982726     -2.63669965160260      1.93794158623426
  H   -3.94208507095181     -2.48394716592509      0.09643814009957
  H   -2.55161888384377     -3.38468299720688      0.54366295952245
  H   -1.86869866807325      1.77992021445093     -0.76006147617357
  H   2.42406596394183      3.63790493619309      0.52585100089802
  H   3.91990584559242      1.44198457018859      0.20437671885351
