33
Coordinates from ORCA-job ./opt_b97-3c_parallel
  N   -2.05126309485989     -3.65585036675524     -1.85535432012384
  C   -1.43172643178728     -2.87343757475135     -1.25968955277646
  C   -0.69981113278276     -1.90443784984195     -0.51899147907025
  C   0.59563446106221     -2.23296024641870     -0.25200232867003
  C   1.64950954253196     -1.57059167348665      0.44504951596773
  C   2.56029942266749     -2.46333276141960      1.05636033346433
  N   3.33051728754492     -3.17188318046387      1.56889866141974
  C   2.03705756325441     -0.22207097028545      0.41009129440040
  N   3.31149664931331      0.05427202904188      0.86103882911232
  C   1.34176837112911      0.90032013233906     -0.13089867460342
  C   2.02177121127749      2.06094815614589     -0.60739427091418
  N   3.32775398892686      2.15246193531158     -0.94498220533057
  C   1.14717969835031      3.16793928837783     -0.67048167743694
  C   -0.08426277038200      2.76698664299971     -0.20298447218977
  N   -1.18231797277635      3.50868872713112     -0.04787499980353
  C   -0.03687341836922      1.29914824849257      0.05533112007715
  C   -1.18984803668808      0.59052404085041      0.28919808755952
  N   -2.35982923475055      1.24638895371098      0.67475117515287
  C   -3.32617616470324      0.34792568420932      0.63216954272354
  N   -4.61348468441522      0.64322862677126      0.92865668815037
  C   -2.85462865080202     -0.93417307536618      0.18769706806871
  C   -1.50612904491915     -0.81410706730257     -0.00316594500409
  H   0.86619304050187     -3.23433084494132     -0.56864500973686
  H   3.44976572032681      0.95265326753922      1.29015477711930
  H   3.81043707986189     -0.69677684723274      1.31099262748787
  H   3.62565194657911      2.93642440622321     -1.49618214389298
  H   3.86896582125742      1.30957068473290     -1.02671900453284
  H   1.41086861539913      4.15549289126854     -1.01471023050389
  H   -2.01651897223693      3.01855524459048      0.27407935479141
  H   -1.21853950207316      4.44870356797051     -0.39694908287712
  H   -5.23667052170254     -0.11146237024134      1.15117388006602
  H   -4.78239887230486      1.50635290308340      1.41564997119862
  H   -3.45351683803219     -1.81126085278224      0.00482210930610
