31
Coordinates from ORCA-job ./opt_b97-3c_parallel
  N   5.09598724001722     -2.34278269182929      0.77245888919234
  C   4.06503164493947     -1.85183976348468      0.54964769725019
  C   2.87022311080319     -1.17673879957470      0.26861597097988
  C   1.58737375054633     -1.67066598495430      0.26070779153733
  C   0.68093567578940     -0.59689559024622      0.01107853869041
  C   -0.68283229560352     -0.82923032066418     -0.06250476944991
  N   -1.17637164112977     -2.08202737830535     -0.24913555251702
  C   -2.50420176699324     -1.96343616824051     -0.30169941123132
  N   -3.30040724874573     -3.01031370118537     -0.51185173371142
  C   -2.96510676966609     -0.61087299388137     -0.11259098336511
  C   -4.30043063583005     -0.22421194810012     -0.02263609592273
  N   -5.43687621071327      0.02412006419208      0.03515628028322
  C   -1.81902523624383      0.15279777075240      0.09068868369797
  N   -1.82647553816416      1.38385476185929      0.57443464894325
  C   -0.90089066983346      2.30899756540295      0.49934398800780
  N   -0.93332929872926      3.26222163741659      1.45944265442866
  N   -0.01954545786138      2.54461638429246     -0.50250284339620
  C   1.03815113077937      1.85211793806470     -0.78242244215827
  N   1.88532265739192      2.40988367586501     -1.71055249772444
  C   1.47809391944670      0.60592017003053     -0.19796977137799
  C   2.81626143257264      0.23430302530281     -0.06563744804228
  N   3.94183294587028      0.97059711388271     -0.26689732357441
  H   1.28412612072763     -2.68104363255427      0.46793527333214
  H   -2.89869461427932     -3.92658426439202     -0.59795053713811
  H   -4.29767615416173     -2.90374221557248     -0.55321951118613
  H   -0.45389245518529      4.12612020828631      1.28312904037644
  H   -1.74012205568848      3.28646142458081      2.05861313212354
  H   2.41429925402008      1.77602073637645     -2.28580044658843
  H   1.50764155994490      3.20993644700230     -2.19147800552740
  H   3.85503811154840      1.97196135609168     -0.27182554859090
  H   4.79926371203129      0.61226980718555      0.11901104195878
