27
Coordinates from ORCA-job ./opt_b97-3c_parallel
  N   4.80455191284611     -0.97308737152894     -0.16854354557847
  C   3.68097369186232     -0.66697672620492     -0.10406258273932
  C   2.34740060330804     -0.27999212067673     -0.02168466825913
  C   1.86596028564592      1.07110434916347      0.07296057812503
  N   2.69337995373164      2.11807155934352      0.16932977847924
  C   0.45698593867354      1.10482000490923      0.10279134899311
  C   -0.23508801412226      2.28395799213725      0.51538571757616
  C   -1.51067244053368      2.70836250500107      0.38390988364260
  C   -2.57714510323622      2.19052442704625     -0.44351821532716
  N   -3.00083470849050      1.01751690038192     -0.71657111672921
  C   -2.57977342385914     -0.19649745860927     -0.22952941611134
  C   -3.47032682189168     -1.21965828998841     -0.01232388566089
  C   -2.70545647760975     -2.39089213813568      0.27051429910615
  N   -1.41175279886804     -2.17313540155567      0.21134560675295
  C   -1.25268567029909     -0.79877765206257     -0.03766141878436
  C   0.00558165959317     -0.25042136020242      0.00195575837288
  C   1.23335939645797     -1.10997628875749     -0.01801873415931
  N   1.20651791979857     -2.42760319674349     -0.08067976903600
  H   3.68633380128430      1.98045641726227      0.09882688972245
  H   2.35246790502094      3.05301341515499      0.04451900691549
  H   0.40254457057372      2.98620981360710      1.04903865088609
  H   -1.71910210034166      3.69776895580412      0.77565113922604
  H   -3.13959131922791      2.98474023557870     -0.94079747293846
  H   -4.54053262547220     -1.14799615301699     -0.11309546013537
  H   -3.09346588738259     -3.37850732208756      0.47909373334552
  H   0.28080056482900     -2.85766753748882      0.03039596206191
  H   2.06074097021087     -2.95869161623281     -0.08456366534772
