26
Coordinates from ORCA-job ./opt_b97-3c_parallel
  N   2.28308510182839      3.04473210785810      0.49080998109765
  C   1.57105770474438      1.93365408242463      0.08034760820643
  C   0.32343493812032      2.28819400258830     -0.57523041210954
  C   -0.88777045832138      1.69240843515817     -0.52807008685170
  C   -1.37759767504916      0.46461576922211     -0.01037786942376
  C   -2.74307880002138      0.23304439471421      0.15518480683048
  N   -3.74922865700755      1.14596251540243      0.14490360543944
  C   -2.97717917444013     -1.17594927164811      0.40452619256231
  C   -1.79172857620816     -1.81771408629994      0.34485597354068
  C   -0.73390636192268     -0.83836890503382      0.11911544520971
  C   0.56497842497744     -1.23970733105043      0.00637190376845
  N   0.83937862834391     -2.60425228335996     -0.13257015004163
  C   2.13384551749811     -2.68318692710251     -0.34065069653655
  C   2.80654085177346     -1.42428151006589     -0.28556086800451
  C   1.84887872007032     -0.46924730841209     -0.04702393031476
  N   2.16664341014905      0.80583273180797      0.27048791054107
  H   3.08222482339197      2.82718913690568      1.06391755791389
  H   1.75453170995077      3.84751378934199      0.78609464403158
  H   0.35467234560110      3.25748272111838     -1.05848762350910
  H   -1.66360152046306      2.29509112195184     -0.99974224819478
  H   -4.67382014062680      0.82595143858443     -0.08407031060250
  H   -3.54624424471691      2.08560988165600     -0.14814954417601
  H   -3.94333933025346     -1.60955973277050      0.61593185283119
  H   -1.59428492890094     -2.86610042577752      0.47787447957421
  H   2.60177613119850     -3.64422512436674     -0.51560306868783
  H   3.86763595208344     -1.24586754314666     -0.34484576709449
