22
Coordinates from ORCA-job ./opt_b97-3c_parallel
  C   2.86532735760910     -1.58475725684678     -0.18679717210269
  C   2.96925436899940     -0.25199047916687      0.20658643177965
  C   1.68958996517161      0.32947039582993      0.16750957787897
  C   1.52887138982594      1.69042044331232      0.37376905518056
  N   0.63338127385587      2.54574420769302     -0.07352108822988
  C   -0.63056122782546      2.53031994255066     -0.38489705223381
  C   -1.66927690054257      1.63439108232226     -0.08419434796817
  C   -1.70105435348234      0.27970716883067      0.15087489845755
  N   -2.92481745884215     -0.28350435331757      0.34462206524189
  C   -2.73601187206031     -1.60934601138422      0.28733746275237
  C   -1.41059559871849     -1.98138363944562      0.05043723083948
  C   -0.66024273013327     -0.80846488284167     -0.01933095919308
  C   0.73063512369242     -0.75918809455659     -0.18748591292106
  C   1.52066108805178     -1.89492136471298     -0.41265902855815
  H   3.68913463052040     -2.27578926445456     -0.28402645514751
  H   3.87991898233717      0.28215504682763      0.42666619609798
  H   2.37699143671088      2.18025387002304      0.84926340678283
  H   -0.95640455341816      3.43429649685632     -0.89609691456197
  H   -2.66013453465512      2.07171304886876     -0.12610193135306
  H   -3.57178882266802     -2.28049512509847      0.43420013649888
  H   -1.03320671095422     -2.98845226559154      0.00937647359926
  H   1.14362260742553     -2.87130934779765     -0.66779140854014
