29
Coordinates from ORCA-job ./opt_b97-3c_parallel
  N   1.61648266293016      3.95796425847184     -1.37515657068306
  C   1.25828237612473      2.97049625355054     -0.88173314992764
  C   0.88419117165128      1.70866737892314     -0.33356391460007
  C   1.92394899247472      0.79423807145389     -0.26820816500592
  C   2.07951761450071     -0.52121099041806      0.18842976409984
  C   3.42752399694378     -0.84430745247241      0.49005511663215
  N   4.51584342978844     -1.15837778375302      0.75585770112533
  C   1.17345016815944     -1.62061352444662      0.26382322496235
  N   1.71713862675558     -2.80376333391194      0.63187864428599
  C   -0.18212209231326     -1.68387467115072     -0.15934006158842
  C   -0.73772416067497     -2.88417954245754     -0.59446840763599
  C   -2.12793985710095     -2.76859706678258     -0.76649063169078
  C   -2.51318515134522     -1.50313663755494     -0.37417410143358
  N   -3.78156951629999     -1.00230172171317     -0.41826480123787
  C   -1.31401770602197     -0.75125964247227      0.02028569068489
  C   -1.37265841386258      0.54069160920822      0.48032457532199
  C   -2.53308892944770      1.19035261897819      0.99817094380953
  C   -2.23366844284728      2.52633059262662      1.06216320171773
  N   -1.00009484735968      2.82437833095374      0.54411334595421
  C   -0.40710501386391      1.67577472524859      0.25629443163712
  H   2.87177735737580      1.23989005230854     -0.54436755574653
  H   2.69371952020856     -2.87919383661244      0.86072768691305
  H   1.11917232818815     -3.56344132168992      0.89337220703826
  H   -0.17465892651075     -3.77423468183056     -0.82861655212772
  H   -2.77546988094191     -3.52648829868216     -1.17854906937692
  H   -3.86741942216686      0.00141971490470     -0.45869369871119
  H   -4.41676923942397     -1.48425022130673     -1.03237158035743
  H   -3.39573942975689      0.70281410643135      1.41827908869652
  H   -2.83372029116325      3.31467272519550      1.49226580894388
