27
Coordinates from ORCA-job ./opt_b97-3c_parallel
  N   -4.26655743180548     -2.03293944971776     -1.11381026466715
  C   -3.29320916332183     -1.60481391080042     -0.63962424712566
  C   -2.12245727877499     -1.05010594700363     -0.08733327001049
  C   -1.46993915810829     -1.84764354484435      0.94889746240503
  N   -0.24331580658385     -2.14977995018139      1.08844045647833
  C   0.85362051569444     -1.81142175808105      0.36624973498120
  N   1.76714848645161     -2.72009039898735      0.07701530583248
  C   2.86533531897039     -2.03501362643475     -0.37578580170177
  C   2.72876704656850     -0.66032660223311     -0.29158940305697
  C   3.66909147384073      0.30293324780559     -0.67208445834637
  N   4.44091905053247      1.11853243693561     -0.97608727136924
  C   1.36496041649386     -0.44192224291500      0.11601005184236
  C   0.67539444148441      0.73770312872367      0.21737961138121
  C   1.32358070484949      2.03222301319185      0.49351016545079
  N   0.46459695355154      2.97990930846602      0.70061701173139
  C   -0.79599842276232      2.40559163215412      0.46272302631853
  N   -1.85146997251288      3.21430783891595      0.54683230869693
  C   -0.72394437387626      1.03405070489653      0.17723656622403
  C   -1.82200645356478      0.26397747812417     -0.37443023293471
  N   -2.68831445124076      0.99519092802744     -1.15348615992280
  H   -2.14393929823230     -2.29083020852250      1.68114736329978
  H   3.72479115999671     -2.56945365944655     -0.74933952445741
  H   2.38415701093281      2.18588216530918      0.61706499556087
  H   -2.78505233009989      2.86882948164052      0.41078701854081
  H   -1.70288121753380      4.17732376622754      0.79137598543324
  H   -2.26896238075231      1.71240738571446     -1.72154672561552
  H   -3.41664532039737      0.48078623203458     -1.62547283236914
