22
Coordinates from ORCA-job ./opt_b3lyp_cdz
C          1.05900        3.22525        9.85356
C         -0.35816        3.16733       10.03915
C         -1.07821        2.98653        8.85802
C         -2.48137        2.95396        9.25019
C         -3.40051        2.78249        8.23476
C         -2.84510        2.65865        6.92241
C         -1.45255        2.73224        6.88636
C         -1.08467        2.58682        5.48376
C          0.26421        2.62825        5.19369
C          1.12603        2.81010        6.32066
C          0.45326        2.91637        7.53816
C          1.48837        3.09455        8.54824
N         -0.69249        2.87819        7.76100
H          1.78140        3.36106       10.65415
H         -0.81263        3.25832       11.02167
H         -2.86484        3.05208       10.26397
H         -4.46316        2.74949        8.46043
H         -3.47056        2.51993        6.04507
H         -1.77338        2.44968        4.65235
H          0.60460        2.52587        4.16662
H          2.20620        2.85854        6.21537
H          2.56049        3.13336        8.36536
