22
Coordinates from ORCA-job ./opt_b3lyp_cdz
C          2.26534        4.11538       -5.43615
C          3.24011        3.35647       -5.96042
C          3.91433        2.24931       -5.29099
N          4.91873        1.54761       -5.96888
C          5.44707        0.52731       -5.17440
N          6.35847        0.07939       -6.12385
C          7.07829       -0.99088       -5.60795
N          6.81072       -1.43330       -4.31481
C          5.79428       -0.68755       -3.68955
C          5.49254       -1.12777       -2.33452
C          4.49989       -0.45359       -1.62989
C          3.85314        0.63495       -2.32017
C          4.34713        0.83023       -3.60911
N          3.64575        1.84863       -4.07001
N          5.18615        0.20458       -4.10540
H          1.81924        4.92336       -6.01274
H          1.88466        3.95942       -4.42965
H          3.58748        3.55310       -6.97515
H          7.86980       -1.55074       -6.13079
H          6.01357       -1.95860       -1.86027
H          4.25210       -0.75980       -0.61499
H          3.06295        1.22842       -1.86049
