23
Coordinates from ORCA-job ./opt_b3lyp_cdz
C          1.75841        4.29912       -0.83542
N          1.50450        3.27139        0.19403
C          1.07117        2.39049        0.70230
N          1.14804        1.48654       -0.36417
C          0.75216        0.21158        0.05593
N          0.89877       -0.50458       -1.12695
C          0.59656       -1.85483       -0.96677
C          0.21089       -2.25597        0.36774
C          0.18143       -1.23206        1.31320
C         -0.19480       -1.70523        2.63585
C         -0.23493       -0.73335        3.62274
N          0.08404        0.57212        3.25145
C          0.39760        0.68318        1.89713
N          0.66646        1.97049        1.87699
N          0.42727       -0.13669        1.09631
H          0.87541        4.93171       -0.95765
H          2.60936        4.91877       -0.54013
H          1.98583        3.81378       -1.78874
H          1.34803        3.74412        1.08291
H          0.71464       -2.41365       -1.90782
H         -0.02453       -3.29702        0.56932
H         -0.42367       -2.74851        2.83748
H         -0.50490       -0.98934        4.65876
