21
Coordinates from ORCA-job ./opt_b3lyp_cdz
C         -4.27257        0.36413        0.02941
N         -2.92496       -0.21393       -0.15248
C         -1.85421       -0.46666       -0.05868
N         -1.36428        0.84743       -0.06415
C          0.03355        0.89137       -0.01043
N          0.34351        2.25248       -0.01776
C          1.72379        2.44624        0.01535
N          2.57974        1.34382        0.04139
C          1.84941        0.15087        0.03658
N          2.87475       -0.80007        0.04687
C          2.35796       -2.09619        0.03693
N          0.97727       -2.30050        0.02053
C          0.28622       -1.08404        0.01642
N         -0.97876       -1.44217       -0.00971
N          0.72092       -0.02249        0.02025
H          3.08171       -2.92763        0.04068
H          1.93467        3.52787        0.00948
H         -3.02299       -1.22801       -0.15848
H         -4.22294        1.45430       -0.04194
H         -4.66838        0.08791        1.01054
H         -4.94510       -0.01239       -0.74641
