27
Coordinates from ORCA-job ./opt_b3lyp_cdz
C         -3.69140       -0.00842        0.93316
N         -2.78281        0.30941       -0.18346
C         -1.67793        0.42464       -0.22374
C         -1.42443        1.79040       -0.24483
C         -0.04774        2.16785       -0.19425
H          0.26058        3.20947       -0.19512
C          0.83026        1.09053       -0.08851
C          2.15415        1.68631        0.04581
C          3.20397        0.81298        0.24194
C          2.85079       -0.57208        0.24023
C          1.48804       -0.80864        0.05712
C          1.35449       -2.25662       -0.01622
C          0.09240       -2.74539       -0.27708
C         -0.93433       -1.75692       -0.38204
C         -0.49343       -0.43942       -0.20870
N          0.60310       -0.05550       -0.06740
H         -1.97206       -2.03941       -0.53204
H         -0.07412       -3.81667       -0.35261
H          2.15779       -2.98186        0.09762
H          3.59883       -1.35441        0.33327
H          4.21569        1.19293        0.35700
H          2.38589        2.74950        0.02309
H         -2.19923        2.55954       -0.23979
H         -3.20677        1.01237       -0.78623
H         -3.31285       -0.87548        1.48191
H         -3.75831        0.84448        1.61369
H         -4.68651       -0.23884        0.54434
