24
Coordinates from ORCA-job ./opt_b3lyp_cdz
N          3.53118        0.01105       -0.02190
C          2.42809       -0.01843       -0.00962
C          1.66443        1.19482       -0.00327
C          0.28216        0.99869        0.00086
C         -0.30771        2.33164        0.00698
C         -1.68668        2.39688       -0.00341
C         -2.35769        1.13386       -0.01302
C         -1.49834        0.03544       -0.00975
C         -2.35867       -1.14046       -0.01425
C         -1.72502       -2.36642       -0.00133
C         -0.29565       -2.31491        0.00980
C          0.22689       -1.02126        0.00531
C          1.67627       -1.17856        0.00129
H          2.19891       -2.13445        0.00252
N         -0.33117        0.00486       -0.00177
H          0.30983       -3.21687        0.01432
H         -2.30973       -3.28259       -0.00456
H         -3.44692       -1.13719       -0.02573
H         -3.44150        1.05937       -0.01986
H         -2.18808        3.36102       -0.00299
H          0.23865        3.27302        0.01555
H          2.13313        2.17602        0.00241
H          4.11771       -0.81032       -0.15544
H          4.12644        0.82537       -0.15738
