17
Coordinates from ORCA-job ./opt_b3lyp_cdz
C         -2.30613        0.51503        0.00715
N         -3.56623       -0.07983        0.00489
C         -3.55059       -1.47040        0.00357
C         -2.37276       -2.17044        0.00429
C         -2.44802       -3.54139        0.00377
N         -1.21071       -4.17206        0.00510
N         -0.02824       -3.43883        0.00715
C         -0.20324       -2.05801        0.00736
N          0.97826       -1.44579        0.00947
N          1.00699       -0.30668        0.01038
C          0.09851        0.37868        0.00992
C         -1.20222       -0.32187        0.00763
N         -1.19715       -1.47230        0.00654
H         -2.54120        1.59066        0.00818
H         -4.61822       -1.74093        0.00254
H         -3.27162       -4.27240        0.00242
H          0.30647        1.46063        0.01146
