20
Coordinates from ORCA-job ./opt_b3lyp_cdz
C          8.79353       -4.69544       -0.01659
C          8.40778       -3.53620        0.00215
C          7.96594       -2.17965       -0.00901
C          8.94285       -1.12070        0.05119
C          8.47907        0.25794        0.04520
N          9.44812        1.21218        0.10624
C          9.04355        2.49917        0.10366
N          7.67670        2.75103        0.03970
C          6.97085        1.54857       -0.01185
N          5.67876        2.08784       -0.06789
C          4.74394        1.05152       -0.12905
N          5.17038       -0.18669       -0.12682
C          6.48224       -0.32768       -0.06312
C          6.67187       -1.70830       -0.06984
N          7.33672        0.45314       -0.00941
H          9.09073       -5.72137       -0.00798
H         10.00046       -1.38032        0.09747
H          9.85986        3.23805        0.15405
H          3.69484        1.38840       -0.17535
H          5.85019       -2.42427       -0.11956
