17
Coordinates from ORCA-job ./opt_b3lyp_cdz
C          0.80008        0.85862      -10.11026
N         -0.53937        0.90915      -10.30723
C         -1.28683        0.83608       -9.17141
C         -2.69320        0.89931       -9.50347
N         -3.56283        0.83358       -8.41992
C         -2.93263        0.71702       -7.18521
C         -1.54378        0.68021       -7.17257
C         -1.07958        0.55652       -5.79721
N          0.25885        0.50544       -5.59238
N          0.98160        0.58346       -6.78198
C          0.27294        0.69853       -7.97379
N          1.22976        0.74721       -8.87631
N         -0.87007        0.73811       -8.09886
H          1.43426        0.91532      -11.00897
H         -3.21996        0.99118      -10.46608
H         -3.74848        0.67783       -6.44613
H         -1.59508        0.49087       -4.82587
