16
Coordinates from ORCA-job ./opt_b3lyp_cdz
C         -1.96260       -1.74555       -0.00671
N         -0.63484       -2.19210       -0.02283
C          0.27163       -1.12561       -0.00857
N          1.52849       -1.73245       -0.02717
C          2.54250       -0.77482       -0.01551
N          2.21659        0.58215        0.01132
C          0.82911        0.75750        0.02267
N          0.72612        2.15192        0.04897
C         -0.60933        2.55625        0.06441
N         -1.63042        1.60465        0.05298
C         -1.11079        0.30590        0.02600
N         -2.18361       -0.45349        0.01837
N         -0.00977       -0.01692        0.01342
H         -2.72013       -2.54659       -0.01702
H          3.58232       -1.13965       -0.02830
H         -0.82862        3.63625        0.08557
