13
Coordinates from ORCA-job ./opt_b3lyp_cdz
N          0.35316        5.28186        8.38775
N         -1.03421        5.41277        8.27419
C         -1.54985        4.80806        7.12088
N         -2.87064        5.15753        7.39511
N         -3.68915        4.71485        6.44392
N         -3.13514        4.00420        5.36966
C         -1.77926        3.84897        5.43425
N         -1.16184        3.16963        4.42863
N          0.13038        2.91125        4.30239
N          0.80959        3.45196        5.38649
C          0.11797        4.14051        6.38982
N          0.91797        4.61263        7.38653
N         -1.04140        4.23070        6.26223
