19
Coordinates from ORCA-job ./opt_b3lyp_cdz
N         -1.05057        4.43229       -0.46407
C         -1.07806        3.29939       -0.32335
C          0.04568        2.42884       -0.15911
C         -0.67370        1.24748       -0.04467
N          0.05554        0.07129        0.13877
C          1.43232        0.29219        0.17774
N          1.83525       -1.03510        0.36357
C          3.22653       -1.10664        0.43960
N          3.98902        0.05575        0.32950
C          3.15056        1.16082        0.15005
N          4.13658        2.14293        0.07287
C          3.60837        3.41981       -0.11383
C          2.16617        3.49268       -0.19176
C          1.49232        2.27794       -0.07047
N          2.01486        1.26981        0.08184
H         -1.68570        0.80967       -0.03836
H          3.78150       -2.04776        0.58445
H          4.22095        4.33143       -0.19996
H          1.68725        4.45807       -0.33673
