22
Coordinates from ORCA-job ./opt_b3lyp_cdz
C          2.51429        4.66150       -0.15170
C          1.91186        3.59988       -0.09632
C          1.24605        2.33896       -0.03808
C          1.97359        1.09351       -0.09127
C          1.16706       -0.04404       -0.02424
C          1.99908       -1.23218       -0.08713
C          1.34500       -2.45209       -0.03198
C         -0.08820       -2.39653        0.08166
C         -0.63454       -1.11332        0.12139
C         -2.02937       -1.09585        0.23200
C         -2.66674        0.13053        0.27891
N         -1.83939        1.24554        0.20967
C         -0.50287        0.86838        0.10479
N         -0.13525        2.21240        0.07142
N          0.01861       -0.15234        0.06674
H          3.00085        5.61055       -0.19537
H          3.05785        1.09299       -0.17704
H          3.08480       -1.23152       -0.17358
H          1.91397       -3.37859       -0.07471
H         -0.69566       -3.29649        0.13234
H         -2.61056       -2.01300        0.28094
H         -3.76174        0.20345        0.36563
