28
Coordinates from ORCA-job ./opt_b3lyp_cdz
C         -0.81707        4.06491        1.33942
N         -0.74982        3.42509       -0.00329
C          0.19583        4.17520       -0.87307
C         -1.10192        2.36669       -0.05402
C         -0.01646        1.50239        0.02215
N         -0.30521        0.14648       -0.04039
C         -1.67596       -0.05194       -0.15088
N         -1.41771       -1.42212       -0.16030
C         -2.60720       -2.14085       -0.23224
C         -3.80385       -1.33514       -0.26941
C         -3.56638        0.04120       -0.23604
C         -4.83040        0.75110       -0.28279
C         -4.76582        2.13338       -0.31020
C         -3.44704        2.70622       -0.26133
C         -2.38546        1.79639       -0.17342
N         -2.58041        0.64806       -0.18792
H         -1.71153        3.74208        1.88265
H          0.06655        3.80318        1.92869
H         -0.86197        5.15385        1.23976
H          1.22371        4.02657       -0.52859
H          0.11557        3.82752       -1.90685
H         -0.03046        5.24555       -0.85031
H          1.07775        1.41766        0.11004
H         -2.68811       -3.23848       -0.25515
H         -4.78184       -1.80737       -0.31845
H         -5.81225        0.27999       -0.29527
H         -5.67978        2.72271       -0.33890
H         -3.30137        3.78304       -0.25953
