22
Coordinates from ORCA-job ./opt_b3lyp_cdz
N          1.73533        3.40376       -0.04570
C          1.33396        2.37194       -0.02389
C          2.03421        1.10698       -0.08706
C          1.20665       -0.01838       -0.03049
C          2.01837       -1.22123       -0.09897
C          1.34357       -2.42962       -0.03796
C         -0.08785       -2.35123        0.08037
C         -0.61414       -1.05958        0.11658
C         -2.00921       -1.02272        0.22524
C         -2.62982        0.21219        0.27000
N         -1.78421        1.31487        0.20412
C         -0.45275        0.91865        0.10097
N         -0.05239        2.25844        0.07863
N          0.05587       -0.10869        0.06010
H          2.73360        3.62086       -0.07395
H          1.26972        4.31328       -0.02944
H          3.11878        1.07909       -0.17071
H          3.10346       -1.24560       -0.19261
H          1.89494       -3.36705       -0.08274
H         -0.70883       -3.24241        0.13404
H         -2.60362       -1.93248        0.27427
H         -3.72756        0.18795        0.35507
