19
Coordinates from ORCA-job ./opt_b3lyp_cdz
C          6.73759       11.64658       -1.86896
N          5.67142       11.37492       -1.56158
C          4.68674       10.92427       -1.31235
C          3.90977       12.06315       -0.85758
C          2.60275       11.78934       -0.47078
C          2.12073       10.42135       -0.54696
N          0.83101       10.23234       -0.15120
C          0.34971        8.97307       -0.20880
N          1.20429        7.97489       -0.66494
C          2.44668        8.52481       -0.98266
N          3.05861        7.33452       -1.39132
C          4.37346        7.59028       -1.78386
N          4.80769        8.82178       -1.71550
C          3.95428        9.73232       -1.27494
N          2.85168        9.60433       -0.93088
H          4.24016       13.10216       -0.78781
H          1.96177       12.59620       -0.11853
H         -0.68911        8.77560        0.10212
H          4.96397        6.72613       -2.12914
