18
Coordinates from ORCA-job ./opt_b3lyp_cdz
C          0.94371        8.84171        3.43353
C         -0.39443        8.90791        3.95364
C         -1.25059        7.89057        3.54523
C         -2.55135        8.11831        4.16512
N         -3.53915        7.23694        3.89829
N         -3.10314        6.23409        3.04235
C         -1.79012        6.23251        2.57642
C         -1.61459        5.08084        1.70837
N         -0.35232        4.91710        1.14661
C          0.47589        5.89961        1.54087
C          0.08692        6.92493        2.39611
N          1.18743        7.76432        2.59361
N         -0.98062        7.01534        2.83752
H          1.77664        9.53663        3.62448
H         -0.67051        9.72188        4.62064
H         -3.18811        8.73383        4.82103
H         -2.20869        4.23521        1.32702
H          1.36843        5.56299        0.98899
