26
Coordinates from ORCA-job ./opt_b3lyp_cdz
C          2.91246       -2.71171       -7.64184
N          2.83098       -2.02813       -6.31346
C          1.57494       -1.21839       -6.37077
C          3.49380       -2.17534       -5.41619
N          4.63890       -2.99632       -5.47285
C          5.37675       -3.00743       -4.28495
N          6.36703       -3.88112       -4.71857
C          7.29216       -4.07890       -3.70266
N          7.11876       -3.42592       -2.48423
C          5.96694       -2.61863       -2.46190
C          5.76407       -1.91813       -1.20018
C          4.65388       -1.08682       -1.08115
C          3.79626       -0.99868       -2.23747
C          4.24206       -1.78380       -3.29549
N          3.35565       -1.58496       -4.24749
N          5.18879       -2.44936       -3.30199
H          2.93479       -1.96675       -8.44301
H          2.03849       -3.35421       -7.78745
H          3.80660       -3.33245       -7.74265
H          1.61885       -0.52233       -7.21422
H          1.41283       -0.63119       -5.46313
H          0.71121       -1.87680       -6.50842
H          8.15403       -4.74558       -3.86530
H          6.44516       -2.02108       -0.35593
H          4.47285       -0.54804       -0.15311
H          2.90080       -0.37708       -2.25650
