19
Coordinates from ORCA-job ./opt_b3lyp_cdz
C         -1.32019        4.18921       -0.44917
N         -0.73036        3.22522       -0.29889
C          0.01690        2.42495       -0.16152
C         -0.69270        1.23528       -0.04661
N          0.04435        0.06516        0.13650
C          1.41772        0.29946        0.17385
N          1.83191       -1.02465        0.36090
C          3.22436       -1.08537        0.43645
N          3.97637        0.08337        0.32543
C          3.12690        1.17920        0.14600
N          4.11314        2.16041        0.07036
C          3.58297        3.43610       -0.11620
C          2.14122        3.50585       -0.19502
C          1.46712        2.28876       -0.07403
N          1.99164        1.28202        0.07793
H         -1.76698        0.98808       -0.06784
H          3.79914       -2.01491        0.58174
H          4.19624        4.34715       -0.20098
H          1.66083        4.47052       -0.33981
