23
Coordinates from ORCA-job ./opt_b3lyp_cdz
C          2.90612        1.82234       -7.89972
N          3.04472        1.45599       -6.47580
C          3.70122        0.88021       -5.79943
C          4.79513        0.11720       -6.20438
C          5.54415       -0.61430       -5.19440
N          6.60348       -1.34049       -5.64614
C          7.31477       -2.02582       -4.72849
N          6.91637       -1.93851       -3.39781
C          5.79698       -1.11320       -3.28847
N          5.62913       -1.20506       -1.90132
C          4.52642       -0.43997       -1.51444
N          3.85015        0.20558       -2.43146
C          4.30221        0.06637       -3.66412
C          3.40930        0.85961       -4.38581
N          5.19872       -0.53549       -4.08878
H          1.94795        2.32324       -8.06334
H          2.94928        0.92618       -8.52530
H          3.71462        2.49977       -8.18983
H          2.83667        2.28739       -5.92289
H          5.07177        0.06267       -7.25748
H          8.14540       -2.57738       -5.19820
H          4.32376       -0.45416       -0.43109
H          2.57215        1.41203       -3.95353
