13
Coordinates from ORCA-job ./opt_b97-3c
C          1.75972        1.20906        0.06015
N          0.45344        1.54347        0.08930
C         -0.48872        0.58821       -0.01201
N         -1.76099        0.81667        0.00456
N         -2.47559       -0.01809       -0.06157
C         -1.86999       -0.93395        0.01179
C         -0.52920       -0.77195       -0.14900
C          0.67792       -1.41537       -0.20878
N          1.74919       -1.12456       -0.17935
N          2.18345       -0.10846       -0.07350
H          0.59686       -2.43867        0.18660
H         -2.33475       -1.92790        0.09188
H          2.50203        2.01742        0.14576
