15
Coordinates from ORCA-job ./opt_b97-3c
C         -1.85038       -1.16085        0.00553
N         -2.49201        0.02893        0.01012
N         -1.84592        1.26638        0.00960
C         -0.50867        1.31193        0.00481
C          0.52578        0.91669        0.00050
C          0.66101       -0.57042       -0.00276
C          1.70999       -0.91216       -0.00716
N          2.37687       -0.03564       -0.00599
C          1.62412        0.76792       -0.00339
H          2.21875        1.67675       -0.00255
H          2.29064       -1.82860       -0.00773
C         -0.43524       -1.44365       -0.00038
H         -0.30685       -2.52408       -0.00268
H         -0.08356        2.31114        0.00472
H         -2.55966       -1.97960        0.00665
