15
Coordinates from ORCA-job ./opt_b97-3c
C         -1.89947       -1.22706        0.00037
N         -2.45670        0.04660       -0.00005
C         -1.60057        1.12181        0.00010
N         -0.42981        1.66005        0.00072
C          0.46956        0.72890        0.00087
C          1.84970        1.09355        0.00110
N          2.01816       -0.01077        0.00125
C          1.87233       -1.11714        0.00134
C          0.53250       -0.62989        0.00100
C         -0.55705       -1.57933        0.00085
H         -0.30103       -2.63389        0.00108
H          2.37257       -2.09702        0.00149
H          2.28742        2.10295        0.00110
H         -2.34106        1.93565       -0.00042
H         -2.73634       -1.94109        0.00017
