15
Coordinates from ORCA-job ./opt_b97-3c
C          2.66067       -0.08630        0.02100
C          1.84512        0.99759        0.04231
C          0.42047        0.74336       -0.02459
C          0.61138       -0.69258       -0.07041
N         -0.42888       -1.45756        0.01861
N         -1.62137       -1.06410        0.06095
C         -2.44735       -0.00932        0.05579
N         -2.04300        1.32061       -0.02763
C         -0.69311        1.65369       -0.08312
H         -0.45130        2.72423       -0.15485
H         -3.53929       -0.13374        0.10597
C          1.88918       -1.14454       -0.05026
H          2.21166       -2.18237       -0.08778
H          2.25144        2.00154        0.10956
H          3.74724       -0.07863        0.05461
