15
Coordinates from ORCA-job ./opt_b97-3c
C         -2.56805       -0.00287       -0.04539
C         -1.77297       -1.13855       -0.03779
C         -0.42584       -0.75812       -0.02393
C         -0.42554        0.75105       -0.02314
C         -1.77244        1.13213       -0.03648
H         -2.15418        2.15111       -0.03697
C          0.43145        1.46442       -0.00690
N          1.73029        1.12755        0.04329
N          2.40870       -0.00437        0.07588
N          1.72958       -1.13566        0.04200
C          0.43048       -1.47208       -0.00841
H          0.20063       -2.53149       -0.03505
H          0.20185        2.52393       -0.03236
H         -2.15525       -2.15725       -0.03947
H         -3.65524       -0.00271       -0.05389
