14
Coordinates from ORCA-job ./opt_b97-3c
C          1.86678        1.17749        0.05878
N          2.51251       -0.00941        0.01265
N          1.86825       -1.24311       -0.09662
C          0.53333       -1.29289       -0.01739
C         -0.48999       -0.88863        0.09053
N         -1.58033       -0.71460        0.11434
N         -2.74258        0.02168        0.08308
C         -1.70575        0.92053       -0.02789
C         -0.64765        0.59399       -0.00182
C          0.45488        1.46093       -0.04423
H          0.33745        2.54058       -0.10984
H         -1.95096        1.97364       -0.12111
H          0.09553       -2.28350       -0.09955
H          2.57087        1.99415        0.16396
