9
Coordinates from ORCA-job ./opt_b97-3c_parallel
N         -2.58195       -0.01620       -0.00085
C         -1.43985        0.02537        0.00053
C         -0.01262        0.00563        0.00218
C          1.03630        0.99020        0.00397
C          1.99923        0.02325        0.00450
C          0.97244       -0.95770        0.00281
H          0.99682       -2.04272        0.00225
H          3.08351       -0.02204        0.00575
H          1.04380        2.07535        0.00452
