10
Coordinates from ORCA-job ./opt_b97-3c_parallel
N         -1.62733       -0.02312       -0.05926
C         -0.52642       -0.01480       -0.03571
C          0.46989       -0.96725        0.00266
C          1.48877        0.02498        0.00732
C          0.51300        0.97752       -0.03112
H          0.48838        2.06246       -0.05157
H          2.57346        0.01501        0.03112
H          0.48590       -2.05239        0.02193
H         -2.26250       -0.81855       -0.04467
H         -2.17738        0.80201        0.17077
