6
Coordinates from ORCA-job ./opt_b97-3c_parallel
C          0.01012       -0.74910       -0.80431
N          0.62835        0.00391        0.30971
C         -0.00995        0.74906       -0.80433
N         -0.62832       -0.00392        0.30963
H          0.01071        1.83005       -0.74032
H         -0.01055       -1.83009       -0.74027
