16
Coordinates from ORCA-job ./opt_b97-3c_parallel
N         -3.40862       -0.77468       -0.01202
C         -2.28129       -0.58505       -0.01628
C         -0.85787       -0.34848       -0.00676
C          0.01311       -1.44031        0.00434
N          1.35928       -1.31294        0.01380
C          1.86927       -0.06263        0.01220
N          3.22909        0.03410        0.01696
H          3.65624        0.92604       -0.20574
H          3.77053       -0.80810       -0.14375
C          1.07108        1.08288        0.00355
C         -0.31724        0.94464       -0.00544
N         -1.10869        2.06300       -0.01430
H         -2.10663        1.95441        0.13529
H         -0.68935        2.96354        0.18890
H          1.52713        2.07075        0.00354
H         -0.36300       -2.46165        0.00561
