12
Coordinates from ORCA-job ./opt_b97-3c_parallel
N         -2.29331       -0.02729       -0.01466
C         -0.92944       -0.02875       -0.00936
N         -0.31601        1.17520       -0.00677
C          1.03711        1.15127        0.00199
N          1.82718        0.05243        0.00835
C          1.18534       -1.13797        0.00468
C         -0.20682       -1.22227       -0.00405
H         -0.70694       -2.18774       -0.00766
H          1.81208       -2.02707        0.00896
H          1.53992        2.11297        0.00506
H         -2.77273        0.85025        0.15271
H         -2.78271       -0.88803        0.20187
