11
Coordinates from ORCA-job ./opt_b97-3c_parallel
C         -1.41119       -0.00082       -0.00024
C         -0.69981       -1.19897       -0.00016
C          0.69474       -1.15684        0.00011
N          1.39410        0.00077        0.00030
C          0.69348        1.15766        0.00023
C         -0.70120        1.19811       -0.00003
H         -1.22411        2.15126       -0.00008
H          1.28363        2.07212        0.00039
H          1.28600       -2.07069        0.00017
H         -1.22167       -2.15268       -0.00032
H         -2.49866       -0.00141       -0.00045
