10
Coordinates from ORCA-job ./opt_b97-3c_parallel
C         -0.00080       -1.38158       -0.00059
C         -1.19476       -0.66101       -0.00009
N         -1.20924        0.69088        0.00001
C          0.00072        1.29683       -0.00041
N          1.20999        0.68952       -0.00091
C          1.19396       -0.66234       -0.00100
H          2.16226       -1.15888       -0.00140
H          0.00134        2.38233       -0.00033
H         -2.16359       -1.15645        0.00024
H         -0.00140       -2.46865       -0.00067
