21
Coordinates from ORCA-job ./opt_b97-3c_parallel
N          2.65398        0.29620        0.43059
C          1.59559        0.29509        0.11161
C          1.19072       -1.14660        0.14935
C         -0.08132       -1.54179       -0.15134
N         -1.14896       -0.84012        0.08165
C         -1.57494        0.38052        0.19366
C         -1.01258        1.15185       -0.78094
C         -0.02196        2.05085       -0.51235
C          1.31301        1.70365       -0.09494
H          2.01583        2.52398        0.05569
H         -0.21455        3.11060       -0.64767
H         -1.46870        1.16317       -1.76865
N         -2.48608        0.30711        0.80814
H         -2.80329        1.25971        0.63209
H         -3.00617       -0.02311        1.61994
N         -0.43174       -2.46709       -0.64321
H         -1.22128       -3.06716       -0.40855
H          0.13815       -2.98921       -1.30810
H          1.91071       -1.91648        0.43827
H          3.19599        1.15990        0.40163
H          3.24633       -0.37839        0.91384
