19
Coordinates from ORCA-job ./opt_b97-3c_parallel
N         -3.26672       -0.99743        1.36497
C         -2.26371       -0.70546        0.90677
C         -1.02723       -0.28909        0.32632
C         -0.95661        0.80296       -0.61714
N         -0.07140        1.85895       -0.41030
C          1.08499        1.67763        0.26214
C          2.01186        0.65331        0.27958
C          1.87340       -0.46743       -0.61714
N          1.10674       -1.53712       -0.17471
C         -0.09613       -1.31152        0.39876
H         -0.25169       -2.29337        0.87577
N          2.58844       -1.26084       -0.91555
H          3.54112       -0.90385       -1.02185
H          2.62684       -2.19218       -1.33939
H          2.98556        0.80828        0.74092
H          1.67660        2.48710        0.72084
N         -1.57338        1.60358       -1.07623
H         -1.60129        2.44249       -1.66139
H         -2.55499        1.33205       -0.97740
