17
Coordinates from ORCA-job ./opt_b97-3c_parallel
N          3.59893        0.04583       -0.94162
C          2.53196        0.03634       -0.53433
C          1.19011        0.06534       -0.04733
C          0.43597        1.17116       -0.38678
N         -0.80682        1.56590       -0.02911
C         -1.68707        0.60339        0.45423
N         -2.34940        1.48210        0.55982
H         -2.43749        2.39755        1.00193
H         -3.19003        0.96774        0.82210
C         -1.87771       -0.57557       -0.35564
C         -1.08369       -1.68981       -0.16369
N          0.00368       -1.91890        0.59657
C          0.74248       -0.81873        0.99310
H          1.31629       -1.64672        1.43832
H         -1.51224       -2.58313       -0.64386
H         -2.79545       -0.65513       -0.93273
H          0.88432        1.97608       -0.99018
