16
Coordinates from ORCA-job ./opt_b97-3c_parallel
N          2.51816        0.12164        0.09457
C          1.42800       -0.05757        0.12868
N          0.97509        0.94831        0.00766
C         -0.06136        1.32331       -0.11876
C         -1.48769        1.23070       -0.24469
C         -2.14004        0.00713       -0.20561
N         -1.76836       -1.28351       -0.05456
C         -0.41755       -1.50977        0.11597
C          0.92709       -1.32535        0.25094
H          1.57217       -2.16568        0.50369
H         -0.67651       -2.57695        0.18104
H         -3.23449       -0.01257       -0.31513
H         -2.04069        2.15533       -0.37634
H          0.24453        2.37885       -0.17599
H          2.44736       -0.10127       -0.89639
H          2.98851        1.02168        0.16488
