21
Coordinates from ORCA-job ./opt_b97-3c_parallel
N          2.95566        0.55321       -0.92552
C          2.54107        0.60716        0.13995
C          1.14437        0.27238        0.13749
C          0.95296       -1.13040        0.48709
N          0.03555       -1.92696       -0.09856
C         -1.10715       -1.68190       -0.76497
C         -2.06311       -0.70242       -0.62993
C         -1.94552        0.25455        0.43673
N         -1.13818        1.35291        0.17330
C          0.22829        1.29589       -0.12313
N          0.23093        2.38428       -0.35766
H          0.94267        2.55192       -1.07649
H          0.01711        3.32235       -0.00492
N         -2.80976        0.89807        0.70664
H         -3.75151        0.59487        0.43990
H         -2.98431        1.55094        1.47670
H         -3.02575       -0.81350       -1.12795
H         -1.60884       -2.43869       -1.39129
N          1.42708       -2.09809        0.76596
H          1.24548       -3.04813        1.10305
H          2.44881       -2.02892        0.77720
