26
Coordinates from ORCA-job ./opt_b97-3c_parallel
N         -3.55694       -1.25911       -1.58256
C         -2.68967       -0.73527       -1.05739
C         -1.58309       -0.13057       -0.35264
C         -1.18043       -0.76398        0.87967
N         -0.38624       -1.87220        0.63352
C          0.80282       -1.72033       -0.09397
N          0.66806       -2.81807       -0.24933
H          0.62127       -3.80260        0.02102
H          1.38381       -2.78962       -0.98185
C          1.59717       -0.56262       -0.14167
C          2.86964       -1.13713       -0.52167
N          3.37339       -1.66298       -1.40357
C          1.29805        0.74471        0.45677
N          2.25115        1.16490        0.84758
H          2.18577        2.15390        1.09487
H          3.24971        0.95303        0.86287
C          0.16336        1.51574        0.15011
C          0.25154        2.94111        0.39243
N          0.30767        4.05911        0.61857
C         -0.98938        1.11291       -0.52779
N         -1.63424        1.75838       -1.16751
H         -1.23484        2.68873       -1.30287
H         -2.48123        1.74316       -1.73760
N         -1.61004       -1.57542        1.50751
H         -2.57584       -1.27566        1.35052
H         -1.61604       -1.97392        2.44933
