18
Coordinates from ORCA-job ./opt_b97-3c_parallel
N          3.79928        0.36077       -1.28381
C          2.77022        0.10080       -0.85965
C          1.40470        0.03278       -0.42215
C          1.29817       -1.25572        0.04121
C          0.05763       -1.75575        0.56005
C         -1.19308       -1.20998        0.33264
C         -1.60662        0.01180       -0.18904
C         -2.98570       -0.01076       -0.58440
N         -4.07767       -0.05214       -0.92017
C         -1.13357        1.31874       -0.25132
C          0.04618        1.81069        0.40911
C          1.20168        0.99807        0.61632
H          2.05755        1.49972        1.06231
H          0.10449        2.86339        0.66643
H         -1.81463        2.10080       -0.58148
H         -1.98675       -1.93038        0.51897
H          0.10792       -2.77295        0.93588
H          2.10751       -1.98542        0.00449
