18
Coordinates from ORCA-job ./opt_b97-3c_parallel
N         -1.84820       -0.89693       -0.72265
C         -1.22175       -0.47186        0.08164
C         -0.22084       -1.44257        0.44794
C          1.12231       -1.17197        0.20521
N          1.81697       -0.10034       -0.24068
C          1.10318        1.06974       -0.42402
N          0.11918        1.90814       -0.44752
C         -0.98422        1.94342        0.23242
C         -1.75635        0.77619        0.56962
H         -2.67063        0.88050        1.14737
H         -1.39326        2.89935        0.59374
H          1.58675        1.98838       -0.79153
N          2.01370       -1.81126        0.33510
H          2.80991       -2.00609       -0.27100
H          1.99995       -2.55353        1.03361
H         -0.51345       -2.40872        0.85373
H         -2.16629       -1.81268       -1.03849
H         -2.54689       -0.23155       -1.05574
