22
Coordinates from ORCA-job ./opt_b97-3c_parallel
N         -4.05408       -0.68900       -1.16319
C         -2.98872       -0.54780       -0.78132
C         -1.66903       -0.32048       -0.28358
C         -1.35992        0.71044        0.67174
N         -0.32909        1.59835        0.37747
C          0.92638        1.28897       -0.15548
N          1.10090        2.34885       -0.44989
H          1.72127        2.36222       -1.26664
H          1.07349        3.32931       -0.15256
C          1.69019        0.12842        0.00730
C          3.10234        0.21030       -0.24279
N          3.27352        0.00633       -1.35500
C          1.33851       -1.17524        0.55501
N          0.24428       -1.85616        0.16283
C         -0.92745       -1.47582       -0.37600
H         -1.27598       -2.42719       -0.81404
N          1.69944       -2.18481        0.85551
H          1.44260       -3.07450        1.29454
H          2.71428       -2.26187        0.73819
N         -1.95737        1.55195        1.08557
H         -2.92998        1.54366        0.75945
H         -2.00226        2.08887        1.95720
