23
Coordinates from ORCA-job ./opt_b97-3c_parallel
N         -3.53597       -1.03290        1.09318
C         -2.48692       -0.77296        0.72516
C         -1.18710       -0.40981        0.21577
C         -1.12845        0.62180       -0.78861
N         -1.23947        1.87987       -0.24027
C         -0.29524        2.18069        0.67936
C          1.02289        1.79107        0.85258
C          1.70754        0.71657        0.12955
N          2.74902        1.09697        0.06773
H          3.33527        1.91340        0.24023
H          3.37058        0.38959       -0.32492
C          1.25803       -0.58966       -0.13571
C          2.26205       -1.54457       -0.54991
N          2.28909       -1.82550       -1.65809
C         -0.00806       -1.12810        0.35081
N         -0.13291       -2.17640        0.70367
H          0.74727       -2.67633        0.83011
H         -0.85155       -2.76357        1.12744
H          1.63553        2.50342        1.41285
H         -0.37715        3.12480        1.24073
N         -1.89749        1.19835       -1.34791
H         -2.19789        1.91550       -2.00928
H         -2.46173        0.37542       -1.56188
