16
Coordinates from ORCA-job ./opt_b97-3c_parallel
N          3.86039        0.86696        0.29671
C          2.79064        0.49594        0.14710
C          1.43905        0.06905       -0.01607
C          1.11417       -1.21757       -0.59634
N         -0.10536       -1.79327       -0.48557
C         -1.02358       -1.41829        0.41874
N         -2.11351       -0.67049        0.01579
C         -1.80812        0.67865       -0.01944
N         -0.76807        1.41275        0.23266
C          0.46364        1.01368        0.22601
H          0.71029        2.01962        0.60023
N         -2.73997        1.15977       -0.35963
H         -3.69770        0.81064       -0.34170
H         -2.76785        2.04049       -0.87190
H         -1.83043       -2.14825        0.24753
H          0.99046       -2.21653       -1.04179
