23
Coordinates from ORCA-job ./opt_b97-3c_parallel
N         -4.00572       -1.11794        1.05015
C         -2.95657       -0.87365        0.66788
C         -1.63397       -0.60771        0.18042
C         -1.46993        0.75900        0.26394
C         -0.32066        1.40927       -0.16863
C         -0.80390        2.76772       -0.30907
N         -1.16003        3.84639       -0.44251
C          0.98332        0.90284       -0.22860
N          1.69085        1.75463       -0.35070
H          2.66709        1.52014       -0.52355
H          1.54783        2.69592       -0.71341
C          1.47208       -0.36381        0.11932
C          2.81420       -0.49109        0.65259
N          3.86104       -0.58057        1.10384
C          1.01312       -1.65398       -0.17851
C         -0.10917       -1.93669       -1.05736
C         -1.23470       -1.15501       -1.08183
H         -2.04711       -1.52937       -1.69843
H         -0.16750       -2.85687       -1.64728
N          1.41394       -2.68998       -0.10032
H          2.28212       -2.68414        0.43322
H          1.09574       -3.65689       -0.12766
H         -2.30112        1.34904        0.66820
