17
Coordinates from ORCA-job ./opt_b97-3c_parallel
N          4.06258        0.46470        0.64497
C          2.96759        0.26260        0.38635
C          1.60239       -0.02820        0.08286
C          1.17090       -1.33778       -0.39175
C         -0.08523       -1.94508       -0.41746
C         -1.35774       -1.41497        0.02062
C         -1.65355       -0.07750        0.02114
C         -2.83514        0.41104        0.66530
N         -3.77021        0.78404        1.20653
C         -0.88886        0.71414       -0.88299
N         -0.20047        1.69580       -0.23557
C          0.95930        1.19425        0.21544
H          1.09207        2.24655        0.51000
H         -1.31552        1.72947       -0.90078
H         -2.11450       -2.12724        0.33598
H         -0.07959       -3.01694       -0.58873
H          2.00743       -2.00507       -0.57803
