16
Coordinates from ORCA-job ./opt_b97-3c_parallel
N          2.69583        0.08446        0.05561
C          1.61637       -0.11452        0.01714
N          1.39211        1.24628        0.03474
C          0.04687        1.55814        0.06738
N         -1.31867        1.35487        0.10755
C         -1.63570        0.01070        0.12411
N         -1.45665       -1.35980        0.11768
C         -0.12101       -1.71008        0.05443
N          1.10789       -1.30360        0.00887
H          0.43845       -2.65854        0.01753
N         -2.73701       -0.01156        0.19595
H         -3.17014        0.67334        0.81382
H         -3.44995       -0.71592        0.00959
H          0.48113        2.57018        0.04807
H          3.16452       -0.68010        0.53836
H          3.37952        0.83618       -0.02111
