21
Coordinates from ORCA-job ./opt_b97-3c_parallel
N         -2.28033       -2.16307       -1.47236
C         -2.12004       -1.78259       -0.40632
C         -1.28186       -0.64852       -0.11475
C         -0.03900       -1.23717        0.34477
C          1.14293       -0.54277        0.30658
C          2.28880       -1.23038        0.82310
N          3.22917       -1.75032        1.20718
C          1.25264        0.48293       -0.69179
N          1.38947        1.73152       -0.13571
C          0.33569        2.14331        0.60001
C         -1.01202        1.82718        0.62311
C         -1.67713        0.69106       -0.01015
N         -2.74194        0.95888       -0.14924
H         -3.36812        1.75897       -0.06171
H         -3.29794        0.21596       -0.57398
H         -1.66066        2.60591        1.02841
H          0.43495        3.12468        1.08996
N          2.15994        0.92665       -1.15378
H          2.77861        0.11856       -1.23074
H          2.46666        1.57752       -1.87742
H         -0.01510       -2.28643        0.64149
