20
Coordinates from ORCA-job ./opt_b97-3c_parallel
N         -2.94573        0.15879        1.56134
C         -1.98775        0.14549        0.93860
C         -0.79652        0.09363        0.14132
C         -0.28969        1.31061       -0.26056
C          0.89347        1.75498        0.17184
C          1.67128        1.00180        1.00753
C          2.52754        0.10162        0.43742
C          2.11200       -0.79707       -0.50339
N          0.94706       -1.29223       -0.79506
C         -0.19609       -1.17810       -0.18857
N         -0.32334       -2.26763       -0.06078
H         -1.22044       -2.32278        0.41708
H         -0.04696       -3.21873       -0.29357
H          2.83946       -1.41172       -1.05403
H          3.51935       -0.01799        0.86731
H          1.69662        1.19854        2.07563
H          1.26876        2.71713       -0.17010
N         -1.05203        2.00422       -1.12608
H         -2.04474        1.79206       -1.21341
H         -0.93990        3.01276       -1.20918
