21
Coordinates from ORCA-job ./opt_b97-3c_parallel
N         -3.74077       -1.44111        1.29769
C         -2.72947       -1.11538        0.87588
C         -1.45483       -0.74738        0.33406
C         -0.99655       -1.33207       -0.89648
C          0.29644       -1.79962       -0.96076
C          1.33657       -1.33018       -0.06499
N          1.95681       -2.24584        0.04102
H          1.68961       -3.22116        0.16022
H          2.71325       -2.06741        0.69988
C          1.48030       -0.00281        0.33792
C          2.75796        0.23558        0.95073
N          3.77113        0.45733        1.43122
C          0.88944        1.06561       -0.42981
C         -0.44134        1.41147       -0.27367
C         -0.73342        2.79553       -0.48838
N         -1.22310        3.56915       -1.17240
C         -1.42951        0.63294        0.42377
H         -2.24790        1.18715        0.88546
H          1.57391        1.87289       -0.68217
H          0.44055       -2.69543       -1.56999
H         -1.73664       -1.90425       -1.44845
