19
Coordinates from ORCA-job ./opt_b97-3c_parallel
N         -3.22218       -1.54911        0.80371
C         -2.29465       -0.93270        0.54388
C         -1.09947       -0.19134        0.25008
C         -1.67192        1.05685        0.03625
N         -1.23377        2.19087       -0.54417
C          0.12457        2.17585       -0.72139
C          0.81950        2.15275        0.52797
C          1.62469        0.99209        0.75407
C          1.44335       -0.20477       -0.03784
C          2.60986       -1.02393       -0.20686
N          3.55165       -1.65313       -0.36384
C          0.10548       -0.69280       -0.40826
N          0.02551       -1.72175       -0.81959
H          0.81146       -2.29275       -1.12617
H         -0.81929       -2.26195       -0.99852
H          2.50351        1.09879        1.38329
H          0.96177        3.06247        1.10319
H         -0.34721        3.10615       -1.07257
H         -2.62791        1.59046        0.15329
