19
Coordinates from ORCA-job ./opt_b97-3c_parallel
N         -3.62335       -1.20141       -1.33566
C         -2.74042       -0.76131       -0.75979
C         -1.61375       -0.20926       -0.08008
C         -0.85784       -0.99014        0.74294
C          0.23496       -1.66855        0.28674
C          1.55616       -1.12029        0.06501
N          1.91152        0.23093        0.12988
C          0.93768        1.21014        0.22378
N         -0.23445        1.76153        0.27559
C         -1.23350        1.10494       -0.22208
H         -1.82489        1.76197       -0.87922
N          1.63043        2.06811        0.28263
H          2.62792        2.09209        0.07206
H          1.41848        2.95508        0.73823
N          2.58224       -1.41628       -0.20072
H          2.52432       -2.38009        0.12534
H          3.30033       -1.40115       -0.92397
H          0.15620       -2.74480        0.16038
H         -1.21331       -1.18705        1.75277
