20
Coordinates from ORCA-job ./opt_b97-3c_parallel
N         -3.05656       -2.51730        0.30917
C         -2.24919       -1.71484        0.21968
C         -1.27939       -0.66814        0.09953
C          0.01479       -1.16961        0.30515
C          1.29905       -0.66036        0.06166
C          2.26490       -1.71744        0.08027
N          3.01872       -2.57592        0.06785
C          1.76332        0.67128       -0.27279
N          1.12277        1.79643        0.06870
C         -0.03205        1.73337        0.71485
N         -1.12631        1.82995       -0.09857
C         -1.74696        0.62502       -0.36371
N         -2.59235        1.24228       -0.72218
H         -3.43239        0.67206       -0.61616
H         -2.78641        1.88643       -1.48941
H          0.17590        2.81417        0.66846
N          2.50720        1.43548       -0.55394
H          3.07937        0.72465       -1.00833
H          3.14349        2.18704       -0.28989
H          0.02294       -2.21972        0.60637
