17
Coordinates from ORCA-job ./opt_b97-3c_parallel
N          3.66055        0.34441       -0.19598
C          2.54861        0.17644        0.01074
C          1.44658        0.28460        0.04306
C          0.72020        1.41175       -0.00068
C         -0.60669        1.58438        0.01811
C         -1.51376        0.56017        0.05935
N         -1.99169       -0.68927       -0.00594
C         -1.11051       -1.67228       -0.23969
N          0.15922       -1.86784       -0.39757
C          0.91582       -0.97103        0.15230
H          1.02865       -1.56019        1.07837
H         -1.37853       -2.73537       -0.33409
N         -2.58280        0.75913        0.25720
H         -3.53667        0.44394        0.08732
H         -2.65357        1.63392        0.77222
H         -0.97920        2.60697       -0.03430
H          1.28856        2.34015       -0.06751
