24
Coordinates from ORCA-job ./opt_b97-3c_parallel
N         -3.08508       -1.57162       -1.78227
C         -2.17376       -1.73617       -1.10955
C         -1.42878       -0.67766       -0.48636
C         -0.79345       -1.86568       -0.13027
N          0.33835       -1.94163        0.69519
C          1.14780       -0.82170        0.84989
N          1.54935       -1.62557        1.50055
H          1.61460       -2.25804        2.29957
H          2.44185       -1.13025        1.47567
C          1.47180       -0.13604       -0.38125
C          2.65415       -0.55656       -1.08175
N          3.60782       -0.91579       -1.59682
C          0.83322        1.08262       -0.60118
N          1.28940        1.86733       -1.23948
H          0.75457        2.72082       -1.40181
H          2.11196        1.93413       -1.83960
C         -0.35166        1.45586        0.15954
C         -0.78525        2.78975        0.48799
N         -0.30798        3.12046        1.47345
C         -1.36597        0.44271        0.43421
N         -2.37381        0.46661        0.89398
H         -3.31056        0.12905        0.66937
H         -2.49982        1.40436        1.27658
H         -0.36189       -2.86416        0.06110
