21
Coordinates from ORCA-job ./opt_b97-3c_parallel
N          3.46187        0.90087        0.66013
C          2.40727        0.55368        0.39656
C          1.06830        0.15614        0.08728
C          0.16776        1.22292        0.10264
N         -1.12595        1.35403       -0.28158
C         -1.94792        0.23526       -0.42771
N         -2.77995        0.90131       -0.74238
H         -3.71080        0.55183       -0.49323
H         -2.97568        1.56116       -1.50145
C         -1.99629       -0.68238        0.68491
C         -1.07592       -1.70687        0.79257
N         -0.00206       -2.06688        0.05762
C          0.81748       -1.12150       -0.55321
N          1.35647       -2.03860       -0.87949
H          2.35876       -1.89018       -1.03730
H          1.20994       -3.00457       -1.19054
H         -1.55944       -2.42022        1.48098
H         -2.92048       -0.73332        1.25924
N          0.14427        2.31783        0.32027
H          0.93999        2.55229        0.92435
H         -0.18349        3.23546        0.00277
