21
Coordinates from ORCA-job ./opt_b97-3c_parallel
N         -3.42322       -0.69958       -1.66163
C         -2.67038       -1.00691       -0.85655
C         -1.57230       -0.22935       -0.36216
C         -1.31820        0.93198        0.47629
C         -0.26567        1.83538        0.33358
C          0.94025        1.58346       -0.41345
C          1.50076        0.32907       -0.48701
C          2.66336        0.31614       -1.32703
N          3.66273       -0.18627       -1.08761
C          1.13067       -0.59743        0.55163
N          0.45458       -1.64451        0.07006
C         -0.77610       -1.36020       -0.53046
H         -0.62748       -2.39588       -0.87952
N          1.66261       -1.51247        0.88344
H          1.78073       -2.12029        1.69457
H          2.60657       -1.23029        0.61046
H          1.44896        2.45553       -0.81908
H         -0.39772        2.88096        0.61627
N         -2.20830        1.43803        0.88720
H         -2.30436        2.32456        1.38213
H         -3.15697        1.14222        0.65533
