15
Coordinates from ORCA-job ./opt_b97-3c_parallel
C          0.04353       -1.84121       -0.14469
C         -1.20802       -1.25633       -0.34713
C         -1.76353        0.05040       -0.00574
C         -1.16147        1.23629        0.39336
N          0.08967        1.70390        0.04344
C          0.78362        0.81937       -0.71929
C          1.65331        0.08694        0.12334
C          1.30674       -1.28622        0.29086
H          2.06936       -1.96067        0.66658
H          2.57682        0.50217        0.51724
H          1.37972        1.74188       -0.65432
H         -1.07001        2.27910        0.73120
H         -2.84810        0.07594       -0.02613
H         -1.97622       -1.96117       -0.64930
H          0.07525       -2.92332       -0.22373
