20
Coordinates from ORCA-job ./opt_b97-3c_parallel
N         -2.58948        0.15801       -0.36431
C         -1.75652       -0.53594       -0.14967
N         -1.46903        0.83368       -0.24112
C         -0.12649        1.22425       -0.12576
N          1.08503        0.75145       -0.04812
C          1.63360       -0.43043       -0.07466
N          2.71018       -0.18053       -0.14765
H          3.41130       -0.18803        0.59646
H          3.23085       -0.36751       -1.00755
C          1.24336       -1.74803       -0.14417
C          0.02731       -2.14789        0.24222
C         -0.88361       -1.25829        0.73595
H         -0.84563       -0.94389        1.77624
H         -0.24068       -3.20115        0.17503
H          1.93359       -2.50217       -0.52507
N         -0.19651        2.32577       -0.18337
H         -0.18751        3.01807        0.56679
H         -0.82944        2.69903       -0.89217
H         -3.19031        0.28080       -1.18097
H         -3.12727       -0.41166        0.28979
