21
Coordinates from ORCA-job ./opt_b97-3c_parallel
N         -3.45466       -0.38915        1.47921
C         -2.43783       -0.23648        0.98311
C         -1.15182       -0.08384        0.37178
C         -0.43430       -1.25213       -0.09928
N          0.93658       -1.30838       -0.37229
C          1.76075       -0.25019       -0.02110
N          2.12250        0.89677        0.46173
C          1.30962        1.84886        0.79827
C          0.31445        2.30333       -0.01595
C         -0.71464        1.22217       -0.08444
N         -1.32666        1.72466       -0.85800
H         -1.34062        2.54112       -1.46942
H         -2.30406        1.53177       -0.63587
H          0.43028        3.28388       -0.48483
H          2.10324        2.61202        0.79092
N          2.74522       -0.65399       -0.31630
H          3.63467       -0.47232        0.14743
H          2.86625       -1.53221       -0.81982
N         -0.25369       -2.32617       -0.28177
H         -1.20448       -2.37260        0.08182
H         -0.16735       -3.09163       -0.95042
