16
Coordinates from ORCA-job ./opt_b97-3c_parallel
N         -3.06779       -0.05888       -0.68204
C         -2.17261       -0.75855       -0.54562
C         -0.90449       -0.19001       -0.19750
C         -0.55311       -1.45599        0.24583
N          0.74487       -1.87917        0.52116
C          1.78977       -1.06163        0.14322
N          2.49496        0.02048       -0.32270
C          1.67078        1.11427       -0.42361
N          0.47077        1.76058       -0.18468
C         -0.40700        0.98672        0.48098
N         -0.99925        1.91958        0.55008
H         -1.00280        2.76911        1.11401
H         -1.98024        1.66449        0.41804
H          2.49296        1.67507       -0.89596
H          2.65714       -1.71664        0.32455
H         -0.28876       -2.46937        0.58797
