19
Coordinates from ORCA-job ./opt_b97-3c_parallel
N         -2.49926       -1.01250        0.53448
C         -1.52611       -0.31808       -0.07467
C         -1.52391        1.01008       -0.21967
C         -0.48932        1.64771       -0.84644
C          0.58993        2.01515       -0.09312
C          1.27389        1.10393        0.65885
N          1.28744       -0.19168        0.72722
C          0.83885       -1.07212       -0.11383
C         -0.52973       -1.12311       -0.56583
H         -0.76402       -1.87906       -1.30990
N          1.73790       -1.65391       -0.37358
H          1.80636       -2.24213       -1.20102
H          2.68378       -1.51989       -0.02207
H          2.08429        1.40466        1.33895
H          1.02647        2.99832       -0.24747
H         -0.55732        1.92196       -1.89402
H         -2.34556        1.60090        0.17926
H         -3.14919       -0.54041        1.15948
H         -2.30090       -1.93222        0.92398
