17
Coordinates from ORCA-job ./opt_b97-3c_parallel
N         -3.14411       -1.74645        0.02303
C         -2.47926       -0.81646        0.02018
C         -1.68128        0.36807        0.01501
C         -0.33488       -0.12081       -0.04567
C          0.10389        1.24882       -0.11712
N         -0.83113        2.26063       -0.08959
C         -2.01078        1.68770       -0.00104
H         -3.07452        1.96269        0.05845
C          1.40908        1.65017       -0.19145
C          1.92376        0.39318       -0.08287
N          3.03014        0.41991       -0.09812
H          3.85340        1.01578       -0.03334
H          3.35778       -0.54278       -0.03418
C          0.98260       -0.67761        0.00625
C          1.34472       -2.05625        0.11147
N          1.65037       -3.15600        0.16912
H          1.76950        2.47559        0.42267
