18
Coordinates from ORCA-job ./opt_b97-3c_parallel
N         -3.28402       -1.70636       -0.03088
C         -2.38750       -1.01541        0.12684
C         -1.50113        0.10239        0.04398
C         -2.00026        1.37714        0.00255
C         -1.02284        2.28458       -0.07117
C          0.18933        1.66547       -0.08320
C         -0.15514        0.31911       -0.00927
C          0.99718       -0.49505       -0.00526
C          0.92425       -1.92157        0.06141
N          0.85899       -3.06242        0.08528
C          1.99294        0.46100       -0.07733
C          1.55203        1.77173       -0.12796
H          2.06040        2.56729        0.41470
N          3.08821        0.32406       -0.10825
H          3.94868        0.86417       -0.03974
H          3.34928       -0.65796       -0.03664
H         -1.17231        3.36077       -0.11389
H         -3.05989        1.62290        0.02745
