13
Coordinates from ORCA-job ./opt_b97-3c_parallel
N          3.15151        1.09524        0.00009
C          2.17851        0.49540        0.00030
C          0.98731       -0.29396        0.00037
C         -0.30863        0.26125        0.00078
C         -1.24397       -0.76044        0.00060
N         -0.44076       -1.89218        0.00010
C          0.87234       -1.65465        0.00006
H          1.63880       -2.44383       -0.00047
C         -2.37656       -0.03556        0.00098
C         -2.06729        1.26120        0.00137
N         -0.76696        1.56429        0.00128
H         -2.84922        2.03540        0.00173
H         -3.38375       -0.44471        0.00095
