15
Coordinates from ORCA-job ./opt_b97-3c_parallel
N          3.27371        1.72299        0.19486
C          2.42679        0.96076        0.11630
C          1.33783        0.04419        0.01963
C         -0.01541        0.14439       -0.01573
C         -0.65910       -1.09205       -0.11999
N          0.30952       -2.02394       -0.15180
C          1.53676       -1.36858       -0.06896
H          2.49136       -1.91744       -0.07507
C         -2.01715       -1.00053       -0.15505
C         -2.09181        0.37527       -0.06118
N         -0.91683        1.11669        0.02279
N         -2.95607        1.06631       -0.05281
H         -2.97105        2.08662       -0.04639
H         -3.93275        0.77416       -0.09586
H         -2.63078       -1.64531        0.47102
