17
Coordinates from ORCA-job ./opt_b97-3c_parallel
N         -1.94687       -3.10753        0.00020
C         -1.18253       -2.25801        0.00016
C         -0.20034       -1.22330        0.00012
C          1.16123       -1.47321        0.00010
C          1.84078       -0.26951        0.00003
C          3.24523       -0.01418       -0.00007
N          4.37577        0.15262       -0.00009
C          0.86817        0.76320        0.00004
C         -0.29372        0.13598        0.00010
C         -1.30757        1.12536        0.00004
C         -2.72813        0.97524       -0.00002
N         -3.86682        0.88083        0.00065
C         -0.63259        2.32374       -0.00007
C          0.69228        2.11042       -0.00009
H          1.47261        2.86778       -0.00022
H         -1.10547        3.30340       -0.00016
H          1.62418       -2.45720        0.00012
