17
Coordinates from ORCA-job ./opt_b97-3c_parallel
N         -4.16505       -0.91719        0.00110
C         -3.16448       -0.36642       -0.00080
C         -1.89391        0.28282       -0.00163
C         -0.65703       -0.31268       -0.00179
C          0.24441        0.72116       -0.00144
C          1.51641        0.24703       -0.00091
C          2.82417        0.81778       -0.00003
N          3.88691        1.23348        0.00074
C          1.30730       -1.18909       -0.00129
N         -0.06036       -1.51028       -0.00181
N          1.88888       -2.13027       -0.00125
H          2.89597       -1.96220       -0.00087
H          1.77427       -3.14374       -0.00094
C         -0.34366        1.93066       -0.00122
C         -1.65183        1.64723       -0.00149
H         -2.43630        2.40192       -0.00163
H          0.13030        2.91036       -0.00107
