16
Coordinates from ORCA-job ./opt_b97-3c_parallel
N          2.84071        1.85979        0.00064
C          1.75619        1.49590        0.00140
C          1.20293        0.53787        0.00263
C         -0.15353        0.38779        0.00324
C         -0.58889       -0.95320        0.00485
N         -1.96152       -0.95024        0.00531
C         -2.39301        0.36192        0.00401
N         -1.27984        1.18021        0.00275
N         -3.47696        0.53515        0.00418
H         -4.26312       -0.11285        0.00514
H         -3.87300        1.47402        0.00332
N          0.56443       -1.69378        0.00528
C          1.60432       -0.78059        0.00394
N          2.48337       -1.45782        0.00439
H          3.32234       -0.87394        0.00350
H          2.81452       -2.42316        0.00534
