14
Coordinates from ORCA-job ./opt_b97-3c_parallel
N         -2.81972       -2.00688       -0.00274
C         -1.91465       -1.31045       -0.00243
C         -0.82179       -0.39395       -0.00232
C          0.52731       -0.62729       -0.00124
C          1.06842        0.65340       -0.00139
N          2.41902        0.69043       -0.00055
C          2.56998       -0.65307        0.00010
N          1.52440       -1.45241       -0.00037
H          3.54589       -1.16520        0.00098
N          0.20265        1.67190       -0.00221
C         -1.02662        1.03156       -0.00264
N         -1.82822        1.79632       -0.00331
H         -1.94366        2.81043       -0.00400
H         -2.77264        1.40821       -0.00341
