15
Coordinates from ORCA-job ./opt_b97-3c_parallel
N         -2.54803        0.04886       -0.03558
C         -1.44072        0.00223       -0.00714
C         -0.86998        1.21053        0.30987
C          0.34894        0.62180        0.18467
C          0.30274       -0.74163       -0.15716
N          1.61490       -1.12257       -0.23279
C          2.33713        0.01732        0.06241
C          1.60033        1.14105        0.32940
H          1.86274        2.09517       -0.12036
H          3.41543       -0.19756        0.02660
C         -0.95010       -1.24745       -0.29635
H         -1.25175       -2.12434        0.27395
H         -1.10270        2.11593       -0.24846
H         -3.21413        0.81619        0.02941
H         -3.08902       -0.79627       -0.20891
