17
Coordinates from ORCA-job ./opt_b97-3c_parallel
N         -2.90870       -0.11957        0.23929
C         -1.82000        0.01529        0.07432
C         -1.41864        1.33046       -0.03915
C         -0.08120        0.71421        0.00067
C         -0.05948       -0.67901        0.11273
N          1.25760       -1.05504        0.12155
C          1.96107        0.13806        0.01677
C          1.26662        1.32402       -0.06729
H          1.77820        2.28020       -0.15351
N          3.02552       -0.15862        0.01286
H          3.80700        0.49273       -0.05173
H          3.43758       -1.09139        0.03734
C         -1.28839       -1.25397        0.16776
H         -1.55762       -2.04440       -0.53330
H         -2.12182        2.16117       -0.10370
H         -3.53757        0.68085        0.17816
H         -3.50876       -0.93861        0.33761
