12
Coordinates from ORCA-job ./opt_b97-3c_parallel
N         -2.69382        0.02409       -0.00271
C         -1.60905       -0.16127       -0.00174
N         -0.92096        1.03675       -0.00216
C          0.39698        0.66460       -0.00084
C          0.33631       -0.73995        0.00023
N          1.62464       -1.05648        0.00149
C          2.35021        0.07105        0.00116
N          1.60225        1.13952       -0.00028
H          3.45015        0.09507        0.00201
N         -0.86300       -1.22891       -0.00032
H         -3.19626        0.90890       -0.00396
H         -3.38827       -0.71983       -0.00314
