18
Coordinates from ORCA-job ./opt_b97-3c_parallel
N         -1.71656       -1.67590       -0.08508
C         -1.29029       -0.65973       -0.06070
C          0.03113       -0.14444       -0.00107
C          0.00333        1.25426       -0.00131
C         -1.32423        1.56626       -0.05696
C         -2.07312        0.45969       -0.09143
H         -3.16092        0.45907       -0.13634
H         -1.71788        2.57915       -0.07001
C          1.32615        1.57054        0.05429
C          2.06666        0.45816        0.08612
C          1.28891       -0.67005        0.05435
N          1.71560       -1.68669        0.07740
H          1.03830       -2.20021       -0.48394
H          2.63821       -2.03578       -0.17297
H          3.15390        0.45644        0.13039
H          1.72202        2.58289        0.06869
H         -1.03135       -2.18596        0.46952
H         -2.63492       -2.02747        0.17680
