17
Coordinates from ORCA-job ./opt_b97-3c_parallel
N          1.68274        1.72140       -0.07845
C          1.49696        0.63541       -0.00907
C          0.04951        0.60059       -0.04415
C          0.01024       -0.84958       -0.05435
C         -1.14861       -1.56717       -0.05989
N         -2.04595       -0.60816        0.02480
C         -1.38275        0.59780        0.04684
N         -1.90420        1.56854        0.11973
H         -2.83873        1.95733        0.00230
H         -1.28732        2.35366        0.32805
H         -1.58049       -2.57917       -0.09125
C          1.20699       -1.49037       -0.01513
C          2.13489       -0.56224        0.01340
H          3.21067       -0.72484        0.05092
H          1.37283       -2.56647       -0.00606
H          1.71631        2.66926       -0.45338
H          2.65173        1.46417        0.10789
