20
Coordinates from ORCA-job ./opt_b97-3c_parallel
N         -1.95029       -2.09970        0.03936
C         -1.10270       -1.37970        0.01355
N          0.00580       -2.21871        0.00572
C          1.11580       -1.38180       -0.00513
C          0.70019        0.00270        0.00028
C         -0.68516        0.00437        0.00222
C         -1.10086        1.38830       -0.00901
N          0.00916        2.22555       -0.00262
C          1.11794        1.38550        0.00689
N          1.96337        2.10839        0.02697
H          2.06366        2.96624       -0.52707
H          2.79691        2.12091        0.62504
N         -1.94492        2.11257       -0.02831
H         -2.04316        2.97555        0.51822
H         -2.77830        2.12078       -0.62610
N          1.95930       -2.10589       -0.02610
H          2.79300       -2.11717       -0.62359
H          2.05737       -2.96526        0.52511
H         -2.05205       -2.96101       -0.51004
H         -2.78295       -2.10630        0.63721
