20
Coordinates from ORCA-job ./opt_b97-3c_parallel
N         -3.83763       -0.91441        0.11344
C         -2.73885       -0.60422        0.05798
C         -1.35358       -0.25564       -0.00165
C         -0.27245       -1.21636       -0.03664
C          0.66739       -0.13190       -0.00915
C          0.49452        1.29112       -0.08169
C          1.89411        1.63840        0.01371
N          2.80618        0.60826        0.13083
C          1.99741       -0.44482        0.11205
N          2.82404       -1.17308        0.20882
H          2.35763       -2.06440        0.37971
H          3.81086       -1.38466        0.06562
H          1.77403        2.73175       -0.04271
C         -0.93168        1.12113       -0.02581
N         -1.21052        2.19079       -0.01965
H         -1.19361        3.20943       -0.06292
H         -2.19628        1.92950        0.01681
N         -0.20315       -2.31951       -0.10373
H         -1.19957       -2.36618        0.11316
H          0.02573       -3.22577       -0.51312
