18
Coordinates from ORCA-job ./opt_b97-3c_parallel
N          3.62073        1.96744       -0.00062
C          2.77305        1.20377       -0.00077
C          1.74033        0.22010       -0.00080
C          0.36585        0.57739       -0.00057
C         -0.36444       -0.57934       -0.00072
N          0.40188       -1.72595       -0.00104
C          1.64772       -1.17194       -0.00110
N          2.39887       -1.98952       -0.00124
H          3.40414       -1.79485       -0.00146
H          2.33886       -3.01114       -0.00153
C         -1.73882       -0.22218       -0.00052
C         -2.77180       -1.20523       -0.00066
N         -3.61934       -1.96911       -0.00055
C         -1.64612        1.16987       -0.00037
N         -0.40072        1.72410       -0.00034
N         -2.39767        1.98720       -0.00021
H         -3.40284        1.79238       -0.00015
H         -2.33791        3.00888       -0.00009
