21
Coordinates from ORCA-job ./opt_b97-3c_parallel
N         -3.44481       -2.07333        0.00063
C         -2.74421       -1.17403        0.00054
C         -1.89049       -0.02546        0.00044
C         -0.47581        0.12399        0.00017
C         -0.28702        1.54936        0.00025
N         -1.38314        1.73481        0.00048
C         -2.41118        1.31243        0.00065
N         -3.46671        1.63429        0.00089
H         -3.93202        2.53659        0.00103
H         -4.19769        0.92152        0.00098
C          1.09281        1.95617        0.00002
C          2.08135        0.99132       -0.00024
N          3.39107        1.34130       -0.00045
C          3.87248        0.08172       -0.00064
N          3.08285       -0.96673       -0.00058
C          1.91033       -0.41596       -0.00033
C          0.53260       -0.83368       -0.00011
C          0.26169       -2.25064       -0.00018
N          0.05888       -3.37567       -0.00023
H          4.94466       -0.16751       -0.00085
H          1.31151        3.01949        0.00007
