24
Coordinates from ORCA-job ./opt_b97-3c_parallel
N         -4.40362       -1.26343        0.01714
C         -3.43029       -0.66507        0.02908
C         -2.21622        0.08728        0.00554
C         -2.17128        1.53080        0.00017
C         -0.90552        2.31378        0.00840
C         -0.12157        1.19743        0.01101
C         -0.78791       -0.08269        0.00781
C         -0.10567       -1.30318        0.00351
C         -0.76760       -2.58310       -0.00076
N         -1.27857       -3.60486       -0.00375
C          1.27549       -1.22162        0.00190
C          2.38210       -2.18592       -0.00382
C          3.54100       -1.53462       -0.00581
N          3.41570       -0.21362       -0.00146
C          2.04508       -0.03466        0.00404
C          1.33611        1.22808        0.00848
C          2.10781        2.44803        0.00600
N          2.70111        3.42503        0.00380
H          4.54221       -1.99165       -0.01116
H          2.35246       -3.27307       -0.00737
H         -0.48132        3.31605        0.01025
N         -2.94292        2.32399       -0.00930
H         -3.12438        3.32420       -0.07182
H         -3.85357        1.86501       -0.00328
