23
Coordinates from ORCA-job ./opt_b97-3c_parallel
N         -4.43163       -2.07467       -0.01804
C         -3.66662       -1.22563       -0.01179
C         -2.67860       -0.19433       -0.00326
C         -1.27932       -0.43848        0.02417
C         -0.87819        0.91973        0.01096
N         -1.91064        1.84106       -0.01543
C         -3.03000        1.12478       -0.02059
H         -4.02198        1.60067       -0.03745
C          0.54489        1.20165        0.01631
C          0.97458        2.57947        0.00576
N          1.33342        3.66467       -0.00272
C          1.48503        0.08544        0.02814
C          2.85335        0.21404        0.03239
C          3.23288       -1.22465        0.02583
C          2.07077       -2.12534        0.02273
C          0.90156       -1.24132        0.02412
C         -0.45331       -1.54601        0.01936
H         -0.83070       -2.56584        0.01238
H          2.00228       -3.21088        0.01991
N          4.28231       -1.55642        0.02394
H          4.63368       -2.50864       -0.05572
H          5.05339       -0.93487       -0.21237
H          3.34229        1.18567        0.03849
