18
Coordinates from ORCA-job ./opt_b97-3c_parallel
N         -4.74883       -1.22615        0.02237
C         -3.83365       -0.54151        0.00199
C         -2.66696        0.28083       -0.02380
C         -1.29490       -0.03342       -0.01424
C         -0.64691        1.18019        0.01175
N         -1.56645        2.16185        0.01715
C         -2.80040        1.64244       -0.00426
H         -3.66159        2.32706       -0.00289
N          0.70569        1.25108        0.02748
C          1.29724        0.03283        0.01442
C          2.66906       -0.28166        0.02399
C          3.83518        0.54212       -0.00253
N          4.74944        1.22713       -0.02245
C          2.80283       -1.64312        0.00448
N          1.56878       -2.16252       -0.01687
C          0.64922       -1.18067       -0.01156
N         -0.70352       -1.25154       -0.02717
H          3.66128       -2.33118        0.00321
