24
Coordinates from ORCA-job ./opt_b97-3c_parallel
N         -4.15076       -1.30154        0.00001
C         -3.18833       -0.68798        0.00052
C         -2.01943        0.13513        0.00116
C         -0.66948       -0.07576        0.00137
C         -0.04815        1.20287        0.00188
N         -0.96471        2.18690        0.00203
C         -2.16514        1.56756        0.00167
N         -2.97189        2.32657        0.00181
H         -3.11841        3.33610        0.00191
H         -3.90547        1.91100        0.00251
C          1.34008        1.29839        0.00201
C          2.04096        2.55565        0.00138
N          2.58108        3.56170        0.00048
C          2.00320        0.07495        0.00135
C          3.44098       -0.30120        0.00145
C          3.50335       -1.62707        0.00050
C          2.31234       -2.20398       -0.00007
C          1.37356       -1.22202        0.00060
C         -0.07382       -1.39703        0.00066
C         -0.66949       -2.70787        0.00013
N         -1.16179       -3.73816       -0.00029
H          2.12797       -3.27672       -0.00115
H          4.43869       -2.18368        0.00019
H          4.34935        0.29837        0.00191
