21
Coordinates from ORCA-job ./opt_b97-3c_parallel
N          3.16349        2.57435        0.00043
C          2.57218        1.59786        0.00059
C          1.87950        0.34958        0.00077
C          0.43410        0.32185        0.00035
C          0.35681       -1.12100        0.00064
N          1.49377       -1.89521        0.00118
C          2.39789       -0.92186        0.00125
N          3.40596       -1.37926        0.00172
H          4.15628       -0.68695        0.00297
H          3.86489       -2.28997        0.00193
C         -0.94015       -1.74229        0.00061
C         -2.03167       -0.80380        0.00053
C         -3.50798       -0.67534        0.00077
C         -4.00924        0.55130        0.00066
N         -3.06141        1.45991        0.00041
C         -1.96466        0.63391        0.00037
C         -0.66559        1.25058        0.00026
H         -0.56934        2.33274        0.00017
H         -5.05979        0.87978        0.00081
H         -4.16519       -1.54164        0.00101
H         -1.04622       -2.82309        0.00085
