28
Coordinates from ORCA-job ./opt_b97-3c_parallel
N         -3.64875       -0.64245       -0.09645
C         -2.75748        0.00807       -0.07158
C         -2.99773        1.36347       -0.09429
C         -1.86582        2.06822       -0.06484
C         -0.84046        1.18564       -0.01965
C         -1.39071       -0.12113       -0.02090
C         -0.60966       -1.33531        0.02276
N         -1.09932       -2.60180        0.17635
H         -0.45272       -3.34076        0.42755
H         -2.06896       -2.70556        0.45504
C          0.82177       -1.15699       -0.02705
C          1.86328       -2.02781       -0.07306
C          2.99885       -1.33139       -0.10009
C          2.74758        0.01719       -0.07320
C          1.37869        0.08821       -0.02479
C          0.59898        1.30313        0.02508
N          1.07790        2.57425        0.18014
H          0.42461        3.30777        0.42999
H          2.04666        2.68656        0.45902
N          3.64205        0.66359       -0.09360
H          3.29180        1.39969       -0.70460
H          4.65584        0.65481       -0.18491
H          3.98840       -1.78567       -0.13350
H          1.78508       -3.11199       -0.08201
H         -1.78458        3.15221       -0.07163
H         -3.98699        1.81770       -0.12875
H         -3.29363       -1.38709       -0.69400
H         -4.66315       -0.64785       -0.18110
