25
Coordinates from ORCA-job ./opt_b97-3c_parallel
N          2.67376        3.59231       -0.00803
C          2.31287        2.50870       -0.00485
C          1.81858        1.16487       -0.00079
C          2.47331       -0.12890        0.00004
C          2.00835       -1.50078       -0.00141
C          2.41657       -2.87419       -0.00123
N          2.77075       -3.96043       -0.00028
C          0.68017       -0.95112       -0.00212
N         -0.39904       -1.77523       -0.00309
C         -1.62604       -1.20954       -0.00358
C         -2.94639       -1.87679       -0.00490
C         -3.67877       -0.70941       -0.00470
N         -3.08208        0.50029       -0.00392
C         -1.79300        0.15642       -0.00327
C         -0.69614        1.02302       -0.00228
C         -0.89780        2.45203       -0.00197
N         -1.08360        3.57851       -0.00184
C          0.57829        0.43516       -0.00172
N         -4.77252       -0.53907       -0.00516
H         -5.43241       -1.31744       -0.00512
H         -5.34475        0.30646       -0.00524
H         -3.42432       -2.85404       -0.00537
N          3.58188       -0.13935        0.00257
H          4.14314        0.71200        0.00193
H          4.24184       -0.91653        0.00170
