21
Coordinates from ORCA-job ./opt_b97-3c_parallel
N         -0.54140       -3.55488        0.00379
C         -0.52410       -2.41294       -0.00062
C         -0.45508       -0.98446       -0.00242
C          0.80738       -0.29649       -0.00294
N          2.04818       -0.86309       -0.00277
C          2.85888        0.26447       -0.00266
N          2.22659        1.41313       -0.00272
C          0.96449        1.11172       -0.00271
C         -0.16530        1.90758       -0.00189
C         -1.45354        1.26737       -0.00200
C         -2.72332        1.74425       -0.00111
C         -3.52603        0.67568       -0.00133
C         -2.85936       -0.48147       -0.00240
C         -1.54540       -0.14295       -0.00268
H         -3.28761       -1.48200       -0.00328
H         -4.61200        0.74171       -0.00096
H         -3.03016        2.78801       -0.00023
H         -0.09934        2.99168       -0.00104
N          3.96121        0.22267       -0.00232
H          4.58695        1.02777       -0.00243
H          4.55926       -0.60353       -0.00184
