24
Coordinates from ORCA-job ./opt_b97-3c_parallel
N         -3.85468       -2.13050       -0.00913
C         -3.11104       -1.26335       -0.00021
C         -2.20088       -0.16022       -0.00983
C         -0.78512        0.12610       -0.00687
C         -0.48431        1.47846       -0.00819
C         -1.77900        2.16416       -0.01133
C         -2.85924        1.13916       -0.01171
N         -3.82448        1.67578       -0.01354
H         -4.58067        0.99057       -0.01277
H         -4.26986        2.59185       -0.01517
H         -1.70289        3.25037       -0.01248
N          0.79246        1.93986       -0.00620
C          1.78846        1.02339       -0.00359
N          3.10310        1.23873       -0.00056
C          3.58909       -0.02041        0.00198
C          2.78965       -1.14443        0.00118
C          1.55246       -0.33212       -0.00200
C          0.24571       -0.82112       -0.00423
C          0.00185       -2.24145       -0.00206
N         -0.16187       -3.37015       -0.00065
H          3.20566       -2.14994        0.00456
N          4.69639        0.00788        0.00357
H          5.34825        0.79304        0.00212
H          5.27823       -0.83077        0.00545
