25
Coordinates from ORCA-job ./opt_b97-3c_parallel
N         -0.07649        3.96251        0.08868
C         -0.01818        2.82444        0.01273
C          0.02160        1.38531       -0.08219
C          1.29002        0.67916       -0.04129
C          2.54480        1.23837       -0.03588
C          3.33606       -0.02122        0.01405
C          2.50330       -1.23365        0.03808
C          1.11811       -0.75026        0.00452
C         -0.09020       -1.43267        0.01791
C         -0.15429       -2.87012        0.07510
N         -0.22729       -4.00952        0.11961
C         -1.23594       -0.64626       -0.02797
N         -2.52219       -1.00968       -0.02476
C         -3.17308        0.16509       -0.09977
C         -2.52535        1.37332       -0.17953
C         -1.30105        0.77777       -0.10000
H         -2.79091        2.19967        0.47778
N         -4.25472       -0.06939       -0.09997
H         -4.99095        0.63621       -0.13280
H         -4.73404       -0.96954       -0.06233
H          2.84254       -2.26711        0.07504
N          4.43565       -0.05531        0.03489
H          4.99021       -0.90776        0.09676
H          5.09683        0.72002        0.03361
H          2.70029        2.31497       -0.06295
