21
Coordinates from ORCA-job ./opt_b97-3c_parallel
N          0.02888       -3.34172       -0.00802
C         -0.05418       -2.20389       -0.00676
C         -0.00757       -1.10082       -0.00681
C         -1.19105       -0.38979       -0.01173
N         -2.57240       -0.60489       -0.01762
C         -3.37665        0.53154       -0.02085
C         -2.39622        1.47460       -0.01649
C         -1.17275        0.97894       -0.01144
N         -0.01438        1.62982       -0.00643
C          1.17121        0.98812       -0.00151
N          2.43326        1.52465        0.00392
C          3.30792        0.44468        0.00746
N          2.55128       -0.72759        0.00407
C          1.19668       -0.43277       -0.00161
N          4.41233        0.40344        0.01213
H          5.07522        1.18228        0.01504
H          4.99565       -0.43627        0.01447
H         -2.60637        2.54383       -0.01727
N         -4.47567        0.39620       -0.02552
H         -5.05838       -0.44556       -0.02810
H         -5.14882        1.16730       -0.02826
