21
Coordinates from ORCA-job ./opt_b97-3c_parallel
N          1.19496        3.42557       -0.03894
C          0.37805        2.62879        0.01817
C          0.29114        1.20337        0.01232
C          1.49808        0.40127       -0.00223
C          2.97781        0.31234       -0.01617
C          3.51419       -0.89946       -0.02269
N          2.55241       -1.79548       -0.01525
C          1.40124       -1.04151       -0.00380
N          0.28574       -1.71529        0.00517
C         -0.77165       -0.96165        0.02165
C         -2.12058       -1.42120        0.04349
C         -2.97567       -0.36105        0.06155
C         -2.22883        0.73788        0.04987
C         -0.90717        0.40333        0.02586
H         -2.61336        1.75631        0.06512
N         -4.31560       -0.36577        0.09958
H         -4.84760        0.46971       -0.14157
H         -4.84605       -1.17953       -0.20912
H         -2.39426       -2.47229        0.04928
H          4.59583       -1.10681       -0.03260
H          3.60318        1.20281       -0.02033
