25
Coordinates from ORCA-job ./opt_b97-3c_parallel
N         -3.35249       -3.39269       -0.00805
C         -2.95726       -2.32066       -0.00778
C         -2.49921       -0.96653       -0.00798
C         -3.37355        0.20457       -0.00909
C         -2.53879        1.44114       -0.00796
C         -1.15765        0.96746       -0.00580
C         -1.16692       -0.41146       -0.00618
N         -0.03882       -1.16460       -0.00414
C          1.11384       -0.45684       -0.00195
C          2.42437       -0.99600        0.00041
C          3.00760       -2.29883        0.00135
N          3.52095       -3.31892        0.00220
C          3.23080        0.20695        0.00201
N          2.48027        1.34073        0.00080
C          1.20615        0.91309       -0.00175
C          0.04079        1.68689       -0.00353
C          0.07159        3.12698       -0.00294
N          0.11547        4.26867       -0.00241
N          4.31258        0.44587        0.00399
H          4.87703       -0.40593        0.00508
H          4.97963        1.21792        0.00473
H         -2.85634        2.48268       -0.00854
N         -4.45687        0.40887       -0.01032
H         -5.15158        1.15380       -0.01082
H         -4.97615       -0.46919       -0.01056
