19
Coordinates from ORCA-job ./opt_b97-3c_parallel
N         -4.12368        0.07536       -0.00276
C         -2.98085        0.08476       -0.00198
C         -1.55287        0.04363       -0.00081
C         -0.70667        1.20399       -0.00059
N         -1.10714        2.46230       -0.00150
C          0.01762        3.19733       -0.00069
N          1.09849        2.45577        0.00072
C          0.71081        1.21463        0.00089
C          1.39092        0.00396        0.00192
C          2.82382        0.07043        0.00378
N          3.96287        0.16612       -0.00247
C          0.63262       -1.22696        0.00193
N          1.25410       -2.41107        0.00335
C          0.28965       -3.30282        0.00267
C         -0.86320       -2.65124        0.00106
C         -0.79979       -1.17274        0.00046
H         -1.81073       -3.18456        0.00030
H          0.34396       -4.40183        0.00328
H         -0.04707        4.29611       -0.00126
