20
Coordinates from ORCA-job ./opt_b97-3c_parallel
N          4.44936        0.00855       -0.02898
C          3.35109       -0.15138       -0.02827
N          2.50896        0.95958       -0.02733
C          1.14262        0.68437       -0.02648
C          1.15844       -0.68821       -0.02695
C          2.40349       -1.13218       -0.02796
H          2.65635       -2.19229       -0.02853
N         -0.01108       -1.33266       -0.02635
C         -1.17686       -0.64632       -0.02538
N         -2.47887       -1.09008       -0.02466
C         -3.28494        0.05509       -0.02379
C         -2.46117        1.16459       -0.02416
C         -1.15583        0.77035       -0.02497
N          0.01464        1.35344       -0.02560
H         -2.80026        2.20020       -0.02312
N         -4.39223       -0.02996       -0.02306
H         -4.97938       -0.86996       -0.02298
H         -5.07284        0.73663       -0.02225
H          5.03140        0.85230       -0.02903
H          5.13342       -0.75433       -0.02977
