21
Coordinates from ORCA-job ./opt_b97-3c_parallel
N         -3.20900       -2.37958        0.00689
C         -3.45171       -1.26566       -0.07958
C         -2.53079       -0.17363       -0.00772
C         -1.17388       -0.04936       -0.01524
C         -0.97142        1.37284        0.07773
C         -2.06626        2.18730        0.17306
C         -2.98441        1.17658        0.09794
H         -4.04893        1.39030        0.12346
H         -2.16438        3.08046       -0.44174
C          0.41493        1.78375        0.07590
C          1.38710        0.78772        0.01562
C          2.86507        0.91815        0.01240
C          3.32002       -0.37862       -0.02415
N          2.29711       -1.31589       -0.06807
C          1.11800       -0.61273       -0.05176
N         -0.15927       -0.86597       -0.08444
N          4.32980       -0.83210       -0.01974
H          5.19591       -0.29033       -0.00405
H          4.62802       -1.80937       -0.00581
H          3.55135        1.76320        0.04101
H          0.70418        2.83213        0.12120
