21
Coordinates from ORCA-job ./opt_b97-3c_parallel
N          0.43691        3.54187       -0.31017
C          0.36623        2.40307       -0.23788
C          0.24181        0.97961       -0.12089
C          1.40532        0.14530       -0.05232
N          2.67048        0.52162       -0.08835
C          3.37101       -0.62167        0.00824
N          2.61776       -1.69195        0.10324
C          1.39655       -1.25532        0.06964
C          0.17331       -1.88568        0.12993
C         -1.04403       -1.11211        0.06515
C         -2.30285       -1.61814        0.10963
C         -2.68452       -0.29752        0.00246
C         -2.15149        0.96883       -0.11539
C         -0.96565        0.30390       -0.06041
H         -2.38124        1.75457        0.60382
N         -3.79362       -0.24180        0.03004
H         -4.39314        0.57989       -0.01889
H         -4.40276       -1.03883        0.20569
H         -2.61967       -2.36650       -0.61597
H          0.11298       -2.96528        0.22516
H          4.47079       -0.65949        0.00780
