21
Coordinates from ORCA-job ./opt_b97-3c_parallel
N         -3.15724       -2.49305       -0.03879
C         -2.55234       -1.52493        0.01714
C         -1.82588       -0.29365        0.07439
C         -0.40273       -0.20712        0.04066
C         -0.04880        1.12766        0.03084
C         -1.34183        1.85512        0.06234
C         -2.34418        0.97263        0.08879
N         -3.64098        1.31975        0.12819
H         -4.35857        0.64512       -0.13114
H         -3.93633        2.23866       -0.19533
H         -1.52475        2.92711        0.06965
N          1.25171        1.50804        0.00197
C          2.20194        0.53507       -0.01481
N          3.52728        0.71910       -0.04110
C          3.50960       -0.39964       -0.03609
C          3.04882       -1.69778       -0.02164
C          1.87791       -0.80555       -0.00364
C          0.54836       -1.22267        0.02411
H          0.27537       -2.27498        0.03363
H          3.74083       -2.53612       -0.03101
H          4.61099       -0.36789       -0.03345
