23
Coordinates from ORCA-job ./opt_b97-3c_parallel
N         -4.31072       -1.41398        0.03837
C         -3.49879       -0.61002        0.02498
C         -2.45361        0.36521        0.00727
C         -1.02553        0.37903       -0.00442
C         -0.60781        1.69962        0.00001
C         -1.85602        2.50265        0.01503
C         -2.88828        1.65942        0.01855
H         -3.93180        1.96921        0.02879
H         -2.00884        3.57926        0.02250
N          0.70662        2.02860       -0.00851
C          1.61117        1.01864       -0.02178
C          3.09207        1.07163       -0.03215
C          3.57115       -0.33292       -0.04264
C          2.39311       -1.23046       -0.04111
C          1.22615       -0.32087       -0.02696
C         -0.12029       -0.68139       -0.01843
C         -0.53608       -2.06166       -0.02234
N         -0.85181       -3.15977       -0.02417
H          2.41637       -2.31784       -0.04864
N          4.63800       -0.60367       -0.04905
H          5.44901       -0.00081        0.07633
H          4.92645       -1.54594        0.20692
H          3.56107        2.05268       -0.03015
