22
Coordinates from ORCA-job ./opt_b97-3c_parallel
N          0.00772       -2.52751       -0.00474
C          0.02149       -1.16128        0.00015
C         -1.24624       -0.45410        0.00061
C         -2.54154       -0.86298        0.00089
C         -3.29384        0.23766        0.00097
C         -2.57137        1.35758        0.00111
C         -1.26957        0.97782        0.00092
C         -0.02891        1.71593        0.00096
C          1.15021        0.99273        0.00157
C          2.58967        1.36540        0.00118
C          3.29943        0.24023        0.00104
C          2.54461       -0.84762        0.00137
C          1.25822       -0.42392        0.00225
H          2.89061       -1.87823        0.00123
H          4.38649        0.21672        0.00058
H          3.07693        2.33719        0.00078
H          0.00028        2.80247        0.00038
H         -2.95044        2.37666        0.00111
H         -4.38094        0.22366        0.00106
H         -2.89720       -1.89040        0.00064
H         -0.87422       -3.02705        0.00273
H          0.87937       -3.04480        0.00301
