24
Coordinates from ORCA-job ./opt_b97-3c_parallel
N         -3.19804       -2.25975        0.00834
C         -2.61579       -1.27663       -0.00798
C         -1.93262       -0.01899       -0.02532
C         -0.50662        0.18168       -0.02243
C         -0.18377        1.56836       -0.03121
C         -1.49016        2.24325       -0.04579
C         -2.60936        1.26219       -0.04389
N         -3.64554        1.63896       -0.05340
H         -4.33182        0.88961        0.03087
H         -4.11950        2.50311        0.19879
H         -1.50592        3.33065       -0.05509
C          1.12316        2.04745       -0.02003
C          2.15899        1.03931        0.00187
C          3.50160        1.20933        0.00994
C          4.04174        0.00083        0.01875
C          3.13649       -0.97222        0.01683
C          1.78165       -0.35079        0.00539
C          0.48624       -0.87116       -0.00467
C          0.35495       -2.30476       -0.00449
N          0.26704       -3.44490       -0.00449
H          3.43766       -2.01722        0.02251
H          5.11434       -0.17745        0.02640
H          4.03631        2.15605        0.00981
H          1.31236        3.11862       -0.02323
