22
Coordinates from ORCA-job ./opt_b97-3c_parallel
N         -3.30799       -2.60988        0.02030
C         -2.66252       -1.66704       -0.00782
C         -1.88894       -0.46615       -0.03743
C         -0.47889       -0.17229       -0.02713
C         -0.17008        1.17749       -0.03097
C         -1.46257        1.86431       -0.04520
C         -2.53895        0.83625       -0.04663
N         -3.49989        1.37766       -0.05127
H         -4.24571        0.68798        0.02690
H         -3.90358        2.28025        0.19073
H         -1.26712        2.93444       -0.04900
N          1.10907        1.63106       -0.02157
C          2.10661        0.71384       -0.00700
C          3.58512        0.78395        0.00818
C          4.03887       -0.46858        0.01915
C          3.09381       -1.40381        0.01374
C          1.83406       -0.64271       -0.00298
C          0.53279       -1.12996       -0.01307
H          0.31971       -2.19597       -0.00963
H          3.35128       -2.46024        0.02191
H          5.09956       -0.70713        0.03161
H          4.26828        1.62956        0.01142
