25
Coordinates from ORCA-job ./opt_b97-3c_parallel
N          2.45339        3.80100       -0.00299
C          2.15317        2.69738       -0.00012
C          1.82185        1.30703        0.00345
C          2.43116       -0.00948        0.00382
C          1.87571       -1.34940        0.00406
C          2.31885       -2.70958        0.00400
N          2.70667       -3.78476        0.00406
C          0.57878       -0.73584        0.00079
C          0.54589        0.65001        0.00032
N         -0.60517        1.36923       -0.00357
C         -1.77279        0.68336       -0.00735
C         -3.17493        1.16530       -0.01358
C         -4.04410       -0.03872       -0.01827
C         -3.17670       -1.24040       -0.01251
C         -1.79809       -0.70770       -0.00687
C         -0.62037       -1.45021       -0.00253
H         -0.63903       -2.53758       -0.00245
H         -3.54118       -2.26479       -0.01338
N         -5.14485        0.00215       -0.02583
H         -5.76393        0.80961       -0.07105
H         -5.72943       -0.82407       -0.13648
H         -3.39191        2.23104       -0.01480
N          3.53998        0.03269        0.00479
H          4.24553       -0.70260        0.00586
H          4.04384        0.91876        0.00469
