26
Coordinates from ORCA-job ./opt_b97-3c_parallel
N          3.37415        3.48368        0.01542
C          3.03235        2.39359        0.01381
C          2.56413        1.04843        0.01305
C          3.24670       -0.22462        0.01199
C          2.51636       -1.52218        0.00844
C          1.28294       -0.93914        0.00723
C          1.23619        0.49959        0.00881
C          0.05683        1.24450        0.00539
C         -1.12774        0.52437        0.00048
C         -2.50397        0.92561       -0.00200
C         -3.02300        2.25641       -0.00293
N         -3.47934        3.30285       -0.00276
C         -3.21951       -0.25348       -0.00256
N         -2.50067       -1.38920       -0.00091
C         -1.20740       -0.89741        0.00074
C          0.02090       -1.66773        0.00400
C         -0.06170       -3.10671        0.00322
N         -0.11598       -4.24770        0.00411
N         -4.30261       -0.48805       -0.00404
H         -4.92986       -1.29282       -0.00522
H         -4.91072        0.33330       -0.00544
H          0.06439        2.33210        0.00654
H          2.65120       -2.60169        0.00655
N          4.33274       -0.43199        0.01290
H          4.92875        0.39633        0.01280
H          4.96508       -1.23128        0.01260
