22
Coordinates from ORCA-job ./opt_b97-3c_parallel
N         -4.41272       -2.10915        0.01151
C         -3.61759       -1.28877       -0.00527
C         -2.59767       -0.28534       -0.00310
C         -1.23792       -0.33595       -0.00123
C         -0.71286        0.93886        0.00261
N         -1.80480        1.17294        0.00197
C         -2.91952        1.10617       -0.00002
N         -3.64286        1.93606        0.00143
H         -3.83384        2.93683        0.00150
H         -4.54877        1.46890        0.00227
C          0.72399        1.08151        0.00405
C          1.36271        2.35593        0.00460
N          1.90898        3.35842        0.00373
C          1.45896       -0.16195        0.00174
C          2.70156       -0.88347        0.00207
C          3.89868       -0.10709       -0.00018
N          4.83822        0.54149       -0.00215
C          2.80977       -2.24071        0.00154
N          1.54317       -2.59325       -0.00030
C          0.79418       -1.43866       -0.00036
N         -0.50427       -1.41026       -0.00251
H          3.71506       -2.86835        0.00204
