19
Coordinates from ORCA-job ./opt_b97-3c_parallel
N          3.95606       -0.01584       -0.00475
C          2.85107       -0.01934       -0.00070
N          2.02819       -1.13816        0.00017
C          0.75258       -0.63884        0.00390
C          0.73253        0.78480        0.00575
N          2.06821        1.13494        0.00281
N         -0.41174        1.41023        0.00839
C         -1.55822        0.78836        0.00601
C         -2.88196        1.11707        0.00237
C         -3.60697       -0.00213       -0.00146
C         -2.85322       -1.09570       -0.00005
C         -1.57971       -0.64105        0.00429
C         -0.41263       -1.37739        0.00356
H         -0.41513       -2.46385        0.00107
H         -3.19234       -2.13020       -0.00273
H         -4.69544       -0.01796       -0.00510
H         -3.28490        2.12835        0.00175
H          4.52120       -0.86637       -0.02025
H          4.62645        0.75507       -0.00542
