25
Coordinates from ORCA-job ./opt_b97-3c_parallel
N         -5.08883       -0.53347        0.00075
C         -4.10996        0.05414        0.00094
C         -2.85649        0.73979        0.00109
C         -2.84047        2.10183        0.00087
C         -1.58260        2.51444        0.00081
C         -0.76803        1.42036        0.00107
C         -1.52543        0.19058        0.00125
C         -1.00182       -1.10254        0.00107
C         -1.82070       -2.28698        0.00103
N         -2.45004       -3.23988        0.00098
C          0.38784       -1.16238        0.00091
N          1.18993       -2.24270        0.00077
C          2.45335       -1.76404        0.00069
C          2.46837       -0.32343        0.00077
C          3.72374        0.36106        0.00074
N          4.75156        0.85712        0.00070
C          1.14836        0.03728        0.00086
C          0.69072        1.41379        0.00092
C          1.43980        2.64199        0.00087
N          2.05362        3.60633        0.00083
N          3.20254       -2.58083        0.00058
H          3.22465       -3.60033        0.00046
H          4.18079       -2.28454        0.00054
H         -1.26456        3.55484        0.00058
H         -3.71652        2.74951        0.00070
