26
Coordinates from ORCA-job ./opt_b97-3c_parallel
N         -4.26907       -1.97270       -0.01151
C         -3.41101       -1.21957       -0.00876
C         -2.37504       -0.23625       -0.00527
C         -0.94125       -0.26763       -0.00023
C         -0.58946        1.11403        0.00074
N         -1.67718        1.97017       -0.00309
C         -2.70201        1.10316       -0.00668
N         -3.57799        1.78185       -0.00990
H         -3.91939        2.74371       -0.01212
H         -4.41302        1.19313       -0.01232
C          0.81116        1.49250        0.00655
C          1.11758        2.90148        0.00669
N          1.34156        4.02139        0.00669
C          1.81877        0.44063        0.01121
C          3.17577        0.65755        0.01668
C          3.64250       -0.75437        0.02054
C          2.53937       -1.72508        0.01695
C          1.31421       -0.91649        0.01043
C         -0.02121       -1.30483        0.00515
C         -0.41887       -2.68710        0.00537
N         -0.75685       -3.77801        0.00499
H          2.61022       -2.81078        0.01869
N          4.70992       -1.01988        0.02553
H          5.10221       -1.96048        0.02811
H          5.50051       -0.37722        0.02782
H          3.60476        1.65774        0.01725
