24
Coordinates from ORCA-job ./opt_b97-3c_parallel
N          3.35592        1.08790       -0.21015
C          2.49156        0.40920       -0.10631
N          2.99168       -0.89489       -0.09724
C          1.92825       -1.79619        0.00632
C          0.78670       -1.04945        0.06658
C          1.13301        0.30949        0.00586
C          0.15572        1.36682        0.00738
N          0.37464        2.70962        0.15024
H          1.24516        3.02777        0.56062
H         -0.43644        3.30641        0.28808
C         -1.19711        0.85582       -0.04090
C         -2.38375        1.61681       -0.09066
N         -3.32249        0.65381       -0.05779
C         -2.98551       -0.63478        0.01086
C         -1.62702       -0.49560        0.03183
C         -0.58085       -1.49392        0.10798
N         -0.95466       -2.80902        0.12423
H         -1.93233       -3.04121       -0.02439
H         -0.26584       -3.53428       -0.04193
H         -3.83202       -1.33692        0.03921
H         -2.84119        2.61693       -0.13383
H          2.01248       -2.89352        0.02051
H          2.98718        1.92477       -0.66085
H          4.36405        1.21868       -0.13632
