23
Coordinates from ORCA-job ./opt_b97-3c_parallel
N         -5.04330       -1.16332        0.00004
C         -4.11157       -0.50183        0.00014
C         -2.92288        0.29023        0.00034
C         -1.58623       -0.23915        0.00095
C         -0.87106        1.00717        0.00149
C         -1.68605        2.09410        0.00088
C         -2.93553        1.65445        0.00030
H         -3.82495        2.28013       -0.00016
H         -1.37226        3.13523        0.00100
C          0.57169        0.93592        0.00162
C          1.41715        2.10226        0.00051
N          2.07474        3.03688       -0.00042
C          1.11368       -0.35055        0.00282
C          2.44738       -0.89699        0.00136
C          3.72560       -0.25746        0.00108
N          4.73058        0.28635        0.00089
C          2.44660       -2.26230        0.00023
C          1.19331       -2.68938        0.00067
C          0.39275       -1.59485        0.00235
C         -1.04758       -1.52315        0.00090
H         -1.70468       -2.38993        0.00069
H          0.86651       -3.72706        0.00013
H          3.32816       -2.90053       -0.00081
