18
Coordinates from ORCA-job ./opt_b97-3c_parallel
N         -3.78524       -0.08943        0.08085
C         -2.68596        0.08200        0.05165
N         -2.12491       -1.09705       -0.04662
C         -0.90493       -0.67459       -0.01648
C         -0.86879        0.74520        0.10465
C         -2.09780        1.32612        0.16138
H         -2.36330        2.14076       -0.51195
N          0.29329        1.44364        0.15912
C          1.50785        0.76175        0.09237
N          2.85153        1.07289        0.10856
C          3.59475       -0.10113        0.00142
N          2.73692       -1.18866       -0.08488
C          1.48483       -0.64710       -0.02826
C          0.26839       -1.39527       -0.08416
H          0.30360       -2.47724       -0.17698
H          4.69711       -0.11409       -0.00959
H         -4.28359       -0.98311        0.06614
H         -4.52895        0.61218        0.12448
