22
Coordinates from ORCA-job ./opt_b97-3c_parallel
N         -4.00527       -2.14385        0.00175
C         -3.15761       -1.37574        0.00195
C         -2.14189       -0.37435        0.00212
C         -0.79012       -0.49402        0.00166
C         -0.24631        0.81104        0.00200
N         -1.25219        1.72087        0.00266
C         -2.43183        1.04328        0.00279
N         -3.43184        1.55176        0.00328
H         -3.66460        2.54468        0.00373
H         -4.34040        1.08179        0.00337
C          1.14296        0.98998        0.00159
C          1.70835        2.30131        0.00194
N          2.16109        3.35933        0.00238
C          1.96624       -0.22181        0.00081
N          3.34774       -0.26557        0.00032
C          3.61162       -1.57486       -0.00027
C          2.53265       -2.35340       -0.00020
C          1.33308       -1.49767        0.00054
C         -0.03133       -1.72730        0.00091
H         -0.39234       -2.75040        0.00064
H          2.59325       -3.44492       -0.00063
H          4.68045       -1.84968       -0.00074
