20
Coordinates from ORCA-job ./opt_b97-3c_parallel
N         -3.97964       -0.97733       -0.00183
C         -3.12836       -0.21688       -0.00156
C         -2.03750        0.70294       -0.00116
C         -0.73103        0.10563       -0.00087
C         -0.19316        1.44844       -0.00041
N         -1.05372        2.52354       -0.00062
C         -2.27793        2.04294       -0.00113
H         -3.26395        2.53275       -0.00148
N          1.07643        1.74383        0.00008
C          1.85561        0.70431        0.00048
C          3.28185        0.73022        0.00094
C          3.75009       -0.54591        0.00086
C          2.71132       -1.37040        0.00055
C          1.56094       -0.63779        0.00022
C          0.17372       -1.02584       -0.00070
C         -0.30726       -2.36845       -0.00148
N         -0.97606       -3.29365        0.00104
H          2.76945       -2.45743        0.00026
H          4.79727       -0.84103        0.00104
H          3.87335        1.64093        0.00090
