21
Coordinates from ORCA-job ./opt_b97-3c_parallel
N         -3.42760       -2.72092       -0.00680
C         -2.84493       -1.73816       -0.00678
C         -2.14884       -0.49008       -0.00671
C         -0.75200       -0.13314       -0.00524
C         -0.50896        1.22652       -0.00557
C         -1.83164        1.85460       -0.00734
C         -2.86087        0.77917       -0.00836
N         -3.86941        1.22597       -0.00963
H         -4.41947        2.08331       -0.01115
H         -4.53679        0.45482       -0.01010
H         -1.83507        2.94310       -0.00765
N          0.75922        1.70036       -0.00444
C          1.76245        0.78862       -0.00299
N          3.06697        1.08050       -0.00182
C          3.46346       -0.24587       -0.00083
N          2.60680       -1.33321       -0.00119
C          1.50166       -0.58098       -0.00262
N          0.23471       -1.05810       -0.00373
N          4.54915       -0.45891        0.00029
H          4.97510       -1.38586        0.00115
H          5.32157        0.20743        0.00028
