23
Coordinates from ORCA-job ./opt_b97-3c_parallel
N          0.31462        4.10695        0.00041
C          0.28994        2.96443        0.00726
C          0.27402        1.52529        0.01325
C          1.43362        0.77192        0.00404
C          2.87154        1.05887       -0.01411
C          3.54977       -0.08475       -0.02124
N          2.78449       -1.16919       -0.01109
C          1.50640       -0.64305        0.00414
C          0.26341       -1.39083        0.01669
C          0.31694       -2.83339        0.01180
N          0.33788       -3.97630        0.00793
C         -1.00159       -0.66380        0.02794
C         -2.24410       -1.25122        0.03460
C         -3.09108       -0.02873        0.03009
C         -2.30424        1.21261        0.02704
C         -0.90078        0.78187        0.02423
H         -2.63253        2.24969        0.02465
N         -4.19106       -0.06886        0.02866
H         -4.85176        0.70192       -0.05077
H         -4.70853       -0.92339       -0.16841
H         -2.37446       -2.33096        0.04028
H          4.64394       -0.19960       -0.03502
H          3.38697        2.01579       -0.02228
