26
Coordinates from ORCA-job ./opt_b97-3c_parallel
N         -3.67015       -0.96102       -0.28090
C         -2.77756       -0.31985       -0.14545
N         -3.43965        0.89910       -0.15671
C         -2.47263        1.87885       -0.00158
C         -1.16514        1.30784        0.11334
C         -1.42557       -0.08951        0.01850
C         -0.43145       -1.14623        0.04790
N         -0.66885       -2.46820        0.31257
H          0.09013       -3.05404        0.64658
H         -1.60561       -2.75618        0.57977
C          0.89626       -0.53635        0.01508
C          2.16210       -1.19676       -0.09811
N          3.11519       -0.22399       -0.09313
C          2.52452        1.04595        0.00862
N          3.28249        1.85474        0.00150
H          4.30427        1.80415        0.02213
H          3.07833        2.85456        0.05575
C          1.17007        0.85482        0.07129
C          0.11627        1.84495        0.11285
H          0.24808        2.92565        0.10147
N          2.64396       -2.19011       -0.19139
H          3.56946       -2.57151        0.01885
H          2.13268       -2.96981       -0.60987
H         -2.93139        2.88096        0.00070
H         -3.75734       -1.78265       -0.88157
H         -4.59780       -0.83494        0.13034
