23
Coordinates from ORCA-job ./opt_b97-3c_parallel
N         -3.22987       -1.53620        0.01140
C         -2.45374       -0.75223        0.00572
N         -3.02292        0.52397        0.04646
C         -2.00696        1.48634        0.04733
C         -0.82646        0.80246        0.00259
C         -1.10113       -0.56663       -0.02184
C         -0.05127       -1.54184       -0.04947
C          1.31530       -1.07184       -0.01794
C          2.50768       -1.71953       -0.01133
C          3.45225       -0.78093        0.02325
C          2.95235        0.45406        0.04029
C          1.59943        0.33199        0.01537
C          0.52020        1.30021        0.00733
N          0.86574        2.62201        0.02831
H          1.84174        2.87361       -0.09582
H          0.16546        3.33170       -0.15591
H          3.52166        1.38028        0.06952
H          4.51785       -0.99942        0.03629
H          2.66498       -2.79566       -0.03133
H         -0.06441       -2.62872       -0.09030
H         -2.12228        2.58038        0.08225
H         -4.24938       -1.53373        0.01166
H         -2.94548       -2.51325        0.06998
