25
Coordinates from ORCA-job ./opt_b97-3c_parallel
N         -5.42753       -0.10692        0.02821
C         -4.28626       -0.07288       -0.02585
C         -2.85457       -0.00306       -0.06444
C         -2.34900        1.27095       -0.01017
C         -0.99006        0.69522       -0.02394
C         -1.11850       -0.73291       -0.08423
C         -2.35596       -1.26756       -0.24780
H         -2.68597       -2.10794        0.36057
C          0.10805       -1.49731       -0.04190
C          1.29637       -0.77817        0.00978
C          2.69010       -1.12334       -0.01521
C          3.48408       -0.01360       -0.06356
C          2.73392        1.08212       -0.07250
C          1.44742        0.64340       -0.02593
C          0.21815        1.39572       -0.00544
H          0.21830        2.48239        0.02660
N          3.21842        2.33246       -0.12178
H          2.63488        3.11824        0.15736
H          4.17243        2.52360        0.17779
H          4.57230       -0.02210       -0.09395
N          3.11640       -2.13797        0.06499
H          4.07251       -2.48775        0.06916
H          2.50247       -2.94971        0.07116
H          0.13307       -2.58407       -0.05186
H         -2.99064        2.14968        0.01599
