23
Coordinates from ORCA-job ./opt_b97-3c_parallel
N          3.84227        1.70870       -0.04798
C          3.18964        0.77125       -0.05409
C          2.38784       -0.41316       -0.02491
C          0.95503       -0.50019       -0.00526
C          0.59135       -1.90049        0.02878
C          1.93708       -2.54626        0.01442
C          2.91318       -1.65615       -0.01318
H          3.97573       -1.89024       -0.02804
H          2.15519       -3.61187        0.02482
C         -0.82447       -2.15351        0.05997
C         -1.63522       -0.96369        0.01702
N         -2.97266       -0.87146        0.05114
C         -3.28556        0.42530       -0.06792
C         -2.31186        1.36500       -0.23211
C         -1.31797        0.43902       -0.08887
C          0.12338        0.68924       -0.03327
C          0.39308        2.10706        0.04953
N          0.57565        3.23266        0.10968
H         -2.32141        2.28376        0.35245
N         -4.38836        0.50855       -0.04774
H         -4.85624        1.41013       -0.14134
H         -5.13159       -0.18807        0.00756
H         -1.24082       -3.15616        0.07941
