25
Coordinates from ORCA-job ./opt_b97-3c_parallel
N          4.99724        0.31484       -0.04136
C          3.85393        0.30233       -0.01513
C          2.41985        0.32677        0.01137
C          1.94952        1.61531       -0.02078
C          0.58423        1.05620        0.00962
C          0.68032       -0.37396        0.04583
C          1.91407       -0.94966        0.04795
N          2.22762       -2.25492        0.09362
H          3.17649       -2.55668       -0.12085
H          1.58373       -2.94879       -0.28073
C         -0.57312       -1.09652        0.03993
C         -1.74039       -0.35951        0.20570
C         -3.13244       -0.66952        0.00225
C         -3.89894        0.45383       -0.11376
C         -3.11372        1.51565       -0.01996
C         -1.84907        1.06919        0.18751
C         -0.60688        1.78512        0.04958
H         -0.58177        2.87179        0.02537
H         -3.43040        2.55474       -0.06364
H         -4.97845        0.48169       -0.25087
N         -3.59939       -1.66849        0.02220
H         -3.04032       -2.49645        0.21741
H         -4.57533       -1.93518        0.13442
H         -0.63206       -2.17261       -0.10465
H          2.60635        2.48284       -0.03276
