27
Coordinates from ORCA-job ./opt_b97-3c_parallel
N          4.19605        2.65208       -0.00224
C          3.43771        1.79669       -0.00190
C          2.51874        0.70055       -0.00112
C          2.75133       -0.73396       -0.00146
C          1.79878       -1.82999       -0.00134
C          1.80817       -3.26197       -0.00130
N          1.85818       -4.40277       -0.00134
C          0.72320       -0.87939       -0.00066
N         -0.57046       -1.29714       -0.00005
C         -1.51405       -0.32770        0.00058
C         -2.93464       -0.58043        0.00101
C         -3.74312       -1.75966        0.00016
N         -4.42089       -2.68003       -0.00050
C         -3.55143        0.74603        0.00118
C         -2.46409        1.76873        0.00098
C         -1.21400        1.01056        0.00053
C          0.10795        1.45340       -0.00012
C          0.40586        2.86403        0.00019
N          0.62627        3.98531        0.00029
C          1.10015        0.45808       -0.00074
H         -2.52599        2.85570        0.00106
N         -4.55688        1.20381        0.00142
H         -5.28126        0.48604        0.00110
H         -5.03752        2.10151        0.00156
N          3.80090       -1.09862       -0.00187
H          4.10658       -2.07199       -0.00208
H          4.64855       -0.53291       -0.00230
