21
Coordinates from ORCA-job ./opt_b97-3c_parallel
N         -0.54958       -3.57672        0.06460
C         -0.45036       -2.43907        0.07242
C         -0.29403       -1.00790        0.07659
C          1.01656       -0.38366        0.11307
C          2.20826       -1.03469        0.20946
C          2.87421        0.14393        0.04677
N          2.22712        1.31440       -0.03733
C          0.91224        1.05584        0.03061
C         -0.23492        1.93540        0.00026
C         -1.48059        1.22092        0.00740
N         -2.69683        1.86323       -0.03401
C         -3.48088        0.79152       -0.03448
C         -2.87402       -0.39196       -0.00110
C         -1.41946       -0.19425        0.03557
H         -3.45114       -1.31369       -0.00132
H         -4.56818        0.96149       -0.06462
H         -0.21006        3.02066       -0.02913
N          3.96451        0.32798        0.00401
H          4.47826        1.20925       -0.00737
H          4.67153       -0.40735        0.01705
H          2.42527       -1.89908       -0.41584
