24
Coordinates from ORCA-job ./opt_b97-3c_parallel
N          5.52382       -0.11382        0.00795
C          4.37983       -0.09061       -0.01559
C          2.94919       -0.01994       -0.03956
C          2.30606       -1.21129       -0.25994
C          1.06970       -0.68647       -0.04164
C          1.01127        0.74959        0.02578
C          2.40448        1.23836        0.01316
H          3.02035        2.13513        0.01738
C         -0.16129        1.50542        0.02766
C         -1.33054        0.76320        0.00413
C         -2.72511        1.08523        0.00070
N         -3.48974       -0.07489       -0.00261
C         -2.60743       -1.15334       -0.00362
C         -1.32465       -0.65736       -0.00456
C         -0.14627       -1.48965       -0.00560
H         -0.03799       -2.57256        0.00237
N         -3.19523       -2.09182       -0.00493
H         -4.17327       -2.38613       -0.00118
H         -2.65533       -2.95869       -0.00086
N         -3.23922        2.06543       -0.00221
H         -2.69115        2.92741       -0.00355
H         -4.21477        2.36729       -0.00710
H         -0.15253        2.59366        0.03867
H          2.62983       -2.13509        0.21558
