25
Coordinates from ORCA-job ./opt_b97-3c_parallel
N         -3.31483       -1.09489       -0.20051
C         -2.46180       -0.40266       -0.09475
N         -2.96687        0.89989       -0.06548
C         -1.90538        1.80493        0.03897
C         -0.76270        1.05915        0.07963
C         -1.10397       -0.29364        0.00802
C         -0.10326       -1.32357       -0.00963
N         -0.33937       -2.66281        0.13508
H         -1.21218       -2.96765        0.55102
H          0.46432       -3.26916        0.27203
C          1.28680       -0.91350       -0.04938
C          2.45280       -1.60995       -0.08903
C          3.43859       -0.71531       -0.04180
C          2.99365        0.53816        0.02753
C          1.63660        0.47433        0.03073
C          0.60538        1.48944        0.10673
N          1.00572        2.79607        0.09212
H          0.32919        3.53121       -0.08050
H          1.98580        3.00463       -0.07455
H          3.60323        1.43768        0.07718
H          4.49383       -0.97991       -0.05733
H          2.56524       -2.68993       -0.14729
H         -2.00168        2.90068        0.06498
H         -2.94986       -1.93012       -0.65753
H         -4.32885       -1.19386       -0.18048
