22
Coordinates from ORCA-job ./opt_b97-3c_parallel
N         -0.33022       -3.77466       -0.00005
C         -0.27064       -2.63508       -0.00254
C         -0.15005       -1.21412       -0.00582
C         -1.27462       -0.31782       -0.00407
N         -2.59383       -0.67053        0.00105
C         -3.22907        0.56683        0.00068
N         -2.39725        1.58306       -0.00421
C         -1.19404        1.09663       -0.00704
C          0.04997        1.71106       -0.01271
C          1.24334        0.89583       -0.01454
N          2.44827        1.48546       -0.01929
C          3.44033        0.52082       -0.02016
C          2.59496       -0.54826       -0.01546
C          1.11407       -0.53302       -0.01113
H          2.97449       -1.56905       -0.01450
N          4.53681        0.66160       -0.02342
H          5.06999        1.53269       -0.02737
H          5.23745       -0.08141       -0.02244
H          0.13569        2.79474       -0.01479
N         -4.33247        0.53559        0.00449
H         -4.95788       -0.27158        0.00813
H         -4.94242        1.35419        0.00495
