24
Coordinates from ORCA-job ./opt_b97-3c_parallel
N         -2.26430       -3.66922        0.00278
C         -2.04323       -2.54872        0.00222
C         -1.71289       -1.15615        0.00162
C         -2.69122       -0.08669        0.00264
C         -1.94295        1.15106        0.00170
C         -2.54199        2.45110        0.00231
N         -2.97861        3.50623        0.00282
C         -0.61865        0.80886        0.00007
C         -0.45556       -0.60586        0.00009
N          0.75266       -1.21358       -0.00130
C          1.85725       -0.36860       -0.00267
N          3.09938       -0.97311       -0.00414
C          4.12466       -0.04613       -0.00547
C          3.23418        0.98477       -0.00442
C          1.75495        1.06559       -0.00268
C          0.48293        1.73005       -0.00121
H          0.34774        2.80772       -0.00111
H          3.57035        2.02116       -0.00480
N          5.21791       -0.21210       -0.00688
H          5.94068        0.50998       -0.00776
H          5.72547       -1.09866       -0.00782
N         -3.79196       -0.19535        0.00394
H         -4.45024        0.58352        0.00425
H         -4.35371       -1.04630        0.00431
