23
Coordinates from ORCA-job ./opt_b97-3c_parallel
N         -3.91049       -2.08810        0.00831
C         -3.13949       -1.24744        0.00531
C         -2.21194       -0.16052        0.00161
C         -0.80462        0.06315       -0.00256
C         -0.55840        1.42473       -0.00474
N         -1.71815        2.11680       -0.00223
C         -2.65998        1.14412        0.00151
N         -3.62061        1.70265        0.00369
H         -3.95701        2.66714        0.00378
H         -4.46783        1.12839        0.00671
N          0.71089        1.91262       -0.00890
C          1.73720        1.02019       -0.01082
N          3.04877        1.26648       -0.01494
C          3.58307        0.02356       -0.01522
C          2.80297       -1.11461       -0.01168
C          1.53796       -0.34253       -0.00881
C          0.24164       -0.86481       -0.00464
C          0.00999       -2.28440       -0.00282
N         -0.15899       -3.41185       -0.00155
H          3.23718       -2.11352       -0.01212
N          4.69112        0.06909       -0.01852
H          5.28945       -0.75950       -0.01943
H          5.34032        0.85871       -0.02115
