26
Coordinates from ORCA-job ./opt_b97-3c_parallel
N          3.80117        2.58011        0.01160
C          3.23679        1.58589       -0.00615
C          2.52080        0.34741        0.00861
C          3.42649       -0.79437        0.00840
C          2.57320       -2.01396        0.00405
C          1.16829       -1.60004        0.00200
N          0.01111       -2.30508       -0.00203
C         -1.15415       -1.61320       -0.00328
C         -2.55429       -2.04311       -0.00726
C         -3.42218       -0.83346       -0.00684
C         -2.52891        0.31751       -0.00299
C         -3.24526        1.55588       -0.01994
N         -3.82236        2.54213       -0.00324
C         -1.19265       -0.23120       -0.00054
C         -0.00474        0.50706        0.00421
C         -0.01184        1.94899        0.00825
N         -0.01379        3.09156        0.00053
C          1.19138       -0.21763        0.00503
N         -4.45743       -1.21712       -0.00914
H         -4.91565       -0.30692       -0.01005
H         -5.19815       -1.91639       -0.01128
H         -2.62087       -3.12957       -0.00926
H          2.61937       -3.10142        0.00183
N          4.45478       -1.19642        0.00983
H          5.00795       -0.34005        0.00977
H          5.11483       -1.97163        0.00915
