25
Coordinates from ORCA-job ./opt_b97-3c_parallel
N          3.98224        2.56567       -0.01211
C          3.47039        1.54436       -0.01028
C          2.78424        0.29062       -0.00769
C          3.33668       -1.04838       -0.01199
C          2.13782       -1.93591       -0.00659
C          0.88359       -1.16328       -0.00051
C          1.35609        0.18149       -0.00116
C          0.43233        1.29589        0.00023
C         -0.96398        0.92147        0.00342
N         -1.99582        1.82200        0.00139
C         -3.11083        0.99640        0.00253
C         -2.76449       -0.34793        0.00546
C         -3.57834       -1.52423        0.00726
N         -4.72137       -1.53508       -0.00942
C         -1.33018       -0.45628        0.00582
C         -0.45173       -1.53157        0.00322
H         -0.77751       -2.56958        0.00270
N         -4.00499        1.64730        0.00038
H         -4.82395        1.03641       -0.00555
H         -4.36249        2.60212       -0.00199
H          0.75892        2.33170       -0.00242
H          2.01435       -3.01752       -0.00766
N          4.28027       -1.61593       -0.02127
H          4.77412       -2.50661       -0.05157
H          4.99298       -0.88792       -0.04591
