26
Coordinates from ORCA-job ./opt_b97-3c_parallel
N          3.31426        3.10203       -0.00136
C          2.96791        2.01294        0.02201
C          2.52624        0.65523        0.01105
C          3.18729       -0.62789       -0.00505
C          2.52993       -1.96402        0.00080
C          1.29926       -1.38281        0.00955
C          1.21941        0.06226        0.01258
C          0.02006        0.78370        0.00995
C         -1.16406       -0.02502        0.00317
C         -2.50180        0.49217       -0.00587
C         -2.81211        1.88834       -0.00187
N         -3.09181        2.99652        0.00556
C         -3.43118       -0.62082       -0.01952
C         -2.54671       -1.82094       -0.02289
C         -1.12647       -1.43601       -0.00737
C          0.06535       -2.14895       -0.00382
H          0.04438       -3.23607       -0.01196
H         -2.76318       -2.88691       -0.03437
N         -4.51446       -0.82459       -0.02819
H         -5.03703        0.04956        0.00617
H         -5.17496       -1.57209        0.17437
H          0.04034        1.87125        0.00989
H          2.64012       -3.04619       -0.00283
N          4.27425       -0.83087       -0.02338
H          5.01327       -1.53008       -0.06778
H          4.72979        0.07869       -0.08563
