24
Coordinates from ORCA-job ./opt_b97-3c_parallel
N          4.27719        2.32231        0.00154
C          3.58905        1.41074        0.00110
C          2.76734        0.24538        0.00064
C          3.13218       -1.07995        0.00061
N          2.10962       -1.92896        0.00014
C          1.07559       -1.01945       -0.00010
C          1.32578        0.40419        0.00029
C          0.33042        1.45208        0.00105
C         -1.03232        0.98285        0.00075
N         -2.07493        1.87284        0.00149
C         -3.16189        1.03600        0.00105
C         -2.72962       -0.27533        0.00013
C         -3.40164       -1.53712       -0.00052
N         -4.51296       -1.80085        0.00092
C         -1.28450       -0.43441       -0.00024
C         -0.28871       -1.48266       -0.00032
H         -0.50918       -2.54669       -0.00070
N         -4.11986        1.59191        0.00157
H         -4.95421        1.00107        0.00160
H         -4.46661        2.55236        0.00155
H          0.55030        2.51681        0.00192
N          4.08101       -1.65226        0.00091
H          4.92978       -1.08275        0.00129
H          4.40779       -2.62000        0.00101
