25
Coordinates from ORCA-job ./opt_b97-3c_parallel
N         -4.47492       -1.65087        0.00228
C         -3.62459       -0.89008        0.00188
C         -2.59808        0.10403        0.00150
C         -2.97277        1.48369        0.00202
N         -1.87254        2.26379        0.00252
C         -0.76228        1.49140        0.00182
C         -1.23047        0.13564        0.00173
C         -0.40530       -1.05263        0.00156
C         -0.83031       -2.42895        0.00117
N         -1.17841       -3.51571        0.00097
C          0.96250       -0.76845        0.00169
N          2.01062       -1.62556        0.00123
C          3.15458       -0.89616        0.00123
C          2.85528        0.51030        0.00162
C          3.87577        1.50742        0.00153
N          4.71734        2.27870        0.00097
C          1.49679        0.55278        0.00189
C          0.66781        1.73941        0.00206
H          1.10452        2.73475        0.00195
N          4.06526       -1.52821        0.00099
H          4.93647       -0.99259        0.00082
H          4.35679       -2.50726        0.00066
N         -3.85891        2.14960        0.00279
H         -4.14575        3.12994        0.00290
H         -4.73154        1.61696        0.00277
