22
Coordinates from ORCA-job ./opt_b97-3c_parallel
N          2.96999        3.05983       -0.00010
C          2.55284        1.99645        0.00010
C          2.09128        0.64598        0.00036
C          2.99889       -0.47271        0.00067
N          2.34225       -1.65999        0.00047
C          1.02742       -1.37389       -0.00009
C          0.83728       -0.00759       -0.00012
N         -0.34727        0.63632       -0.00051
C         -1.42577       -0.17335       -0.00073
C         -2.78795        0.25105       -0.00097
C         -3.33854        1.56994       -0.00091
N         -3.74523        2.63774       -0.00070
C         -3.57841       -0.86048       -0.00090
C         -2.83349       -1.96594       -0.00055
C         -1.40682       -1.55733       -0.00059
C         -0.13301       -2.23960       -0.00091
H         -0.05977       -3.32266        0.00027
H         -3.28755       -2.95392       -0.00048
H         -4.66654       -0.84904       -0.00120
N          4.10192       -0.57650        0.00075
H          4.62370        0.30273        0.00044
H          4.80437       -1.31546        0.00076
