21
Coordinates from ORCA-job ./opt_b97-3c_parallel
N         -3.28953       -2.59295        0.12956
C         -2.59489       -1.68782        0.09073
C         -1.77112       -0.52307        0.03871
C         -2.33338        0.78607        0.00796
N         -1.35521        1.71679       -0.04454
C         -0.13143        1.13348       -0.05170
C         -0.44181       -0.26483        0.00259
C          0.59764       -1.25113        0.00997
C          1.88905       -0.62216       -0.04563
N          2.98989       -1.37801       -0.05042
C          3.45903       -0.36206       -0.10680
C          3.60783        1.00741       -0.18010
C          2.28210        0.73712       -0.11374
C          1.19955        1.69619       -0.11334
H          1.39966        2.76215       -0.16482
H          4.11113        1.55521        0.61351
H          4.48807       -0.75804       -0.10994
H          0.41444       -2.32148        0.04694
N         -3.28006        1.35807        0.00779
H         -4.07173        0.71413       -0.00954
H         -3.68005        2.29638        0.01375
