32
Coordinates from ORCA-job ./opt_b97-3c_parallel
N         -5.81553       -0.15764        0.02438
C         -4.67325       -0.13280        0.03316
C         -3.23900       -0.12305        0.00944
C         -2.55718        1.07071       -0.02649
N         -3.04367        2.32280       -0.10650
H         -4.04329        2.47435       -0.22953
H         -2.54767        3.02611       -0.65056
C         -1.29459        0.53640       -0.05844
C         -1.13542       -0.88582       -0.03032
C         -2.48609       -1.34652        0.00298
N         -2.75243       -2.41981        0.01222
H         -2.31307       -3.28513       -0.29449
H         -3.75981       -2.56153       -0.04911
C          0.06435       -1.58789        0.01419
C          1.29885       -0.84456       -0.00475
C          2.58576       -1.31581       -0.04325
C          3.26098       -0.11454       -0.07967
C          4.69580       -0.12146       -0.10407
N          5.83922       -0.11595       -0.09065
C          2.47044        1.08844       -0.07260
C          1.23065        0.52334       -0.01893
C         -0.03073        1.24809        0.03245
N         -0.04878        2.58212        0.33839
H          0.81574        3.01447        0.64660
H         -0.92429        2.99577        0.64045
N          2.87924        2.11745       -0.09991
H          2.42710        2.79222       -0.71415
H          3.88214        2.28789       -0.15449
N          2.95271       -2.60826       -0.01587
H          3.90993       -2.85720        0.22849
H          2.33280       -3.30980        0.38293
H          0.05956       -2.67429        0.05541
