26
Coordinates from ORCA-job ./opt_b97-3c_parallel
N         -4.90091       -0.01782        0.13523
C         -3.76092       -0.04544        0.05937
C         -2.32868       -0.06478        0.00223
C         -1.70371       -1.29522       -0.05849
N         -2.05364       -2.58279       -0.21629
H         -1.42665       -3.32689        0.08152
H         -3.00966       -2.87676       -0.02393
C         -0.42059       -0.82245       -0.06669
C         -0.27798        0.59273       -0.03463
C         -1.52536        1.13437        0.01581
N         -1.85578        2.18892        0.06229
H         -1.23558        2.79651        0.59484
H         -2.81074        2.44042        0.31214
C          0.98862        1.29705       -0.03498
N          1.20542        2.63325       -0.23097
H          2.14789        2.94515       -0.43588
H          0.43521        3.19480       -0.57790
C          2.14152        0.43725        0.07281
C          3.50336        0.80043        0.10784
N          4.09986       -0.40824        0.11010
C          3.38281       -1.53450        0.07372
C          2.14263       -0.96886        0.03231
C          0.82923       -1.54099       -0.08516
H          0.86647       -2.62761       -0.07384
H          3.91647       -2.49657        0.07398
H          4.07375        1.74100        0.11478
