25
Coordinates from ORCA-job ./opt_b97-3c_parallel
N         -2.76149       -3.59622       -0.19846
C         -2.48238       -2.48932       -0.16246
C         -2.09933       -1.11430       -0.08707
C         -3.06687       -0.14427       -0.15228
C         -2.26627        0.96636       -0.06582
C         -2.99679        2.19410       -0.04004
N         -3.54769        3.19412       -0.00878
C         -0.85201        0.76800        0.05885
C         -0.75362       -0.64359        0.05528
C          0.40881       -1.51324        0.05418
C          0.71109       -2.92335        0.04895
N          0.97596       -4.03436        0.04183
C          1.53076       -0.57108        0.05149
N          2.84709       -0.96860        0.04871
C          3.59938        0.19548        0.01874
C          2.86907        1.35892       -0.00691
C          1.47124        0.86262        0.02298
C          0.27471        1.57525        0.00656
C          0.23443        3.01097       -0.06820
N          0.22982        4.15132       -0.12780
H          3.34962        2.33508       -0.03749
N          4.68113       -0.02869        0.01366
H          5.40674        0.68837        0.00479
H          5.17434       -0.92243        0.00497
H         -3.98541       -0.22864        0.42712
