26
Coordinates from ORCA-job ./opt_b97-3c_parallel
N         -4.90022       -0.00855        0.12556
C         -3.75967       -0.03556        0.05240
C         -2.32734       -0.05447       -0.00134
C         -1.52303        1.14430        0.00961
N         -1.85416        2.19918        0.05141
H         -1.22624        2.76503        0.61947
H         -2.80587        2.45022        0.31347
C         -0.27650        0.60069       -0.03901
C         -0.42084       -0.81302       -0.06835
C         -1.70362       -1.28588       -0.05695
N         -2.03563       -2.57925       -0.20639
H         -2.98815       -2.88559       -0.01740
H         -1.39947       -3.31185        0.10135
C          0.83025       -1.52818       -0.09364
C          2.14537       -0.95684        0.00980
C          3.38145       -1.52885        0.08294
N          4.11871       -0.41667        0.14661
C          3.46342        0.80857        0.12325
C          2.15981        0.45060        0.03547
C          0.99369        1.29759       -0.04837
N          1.20077        2.63632       -0.23965
H          2.13723        2.95276       -0.46428
H          0.42109        3.19735       -0.56576
H          4.05382        1.73567        0.16881
H          3.92605       -2.48474        0.10007
H          0.87199       -2.61457       -0.08527
