26
Coordinates from ORCA-job ./opt_b97-3c_parallel
N         -5.13412       -1.00742       -0.00638
C         -4.03223       -0.70570       -0.02766
C         -2.64363       -0.36462       -0.04572
C         -2.16994        0.98584        0.04237
N         -2.62161        1.98901        0.13795
H         -2.53696        2.99714        0.25585
H         -3.61992        1.78772        0.08686
C         -0.75414        0.81810       -0.05021
C         -0.58579       -0.61722       -0.11578
C         -1.72553       -1.37410       -0.15594
H         -1.82205       -2.27898        0.43943
C          0.75900       -1.18738       -0.14693
N          0.95776       -2.54047       -0.20836
H          0.13767       -3.13061       -0.31892
H          1.82223       -2.89281       -0.60303
C          1.77268       -0.15709       -0.18646
C          3.09343       -0.40539        0.10613
N          3.77509        0.80058        0.17139
C          2.83566        1.79179       -0.05445
C          1.53399        1.24154       -0.26210
C          0.26545        1.76858       -0.10172
H          0.07819        2.83663       -0.01161
H          3.00868        2.87885       -0.08033
N          3.93833       -1.07508        0.34498
H          3.54086       -1.93053        0.73240
H          4.94012       -1.23795        0.24863
