26
Coordinates from ORCA-job ./opt_b97-3c_parallel
N          5.84313        0.57075        0.00369
C          4.70305        0.49114       -0.00623
C          3.27390        0.33412       -0.01738
C          2.63045       -0.95692       -0.01419
N          3.13454       -1.94391       -0.00082
H          2.72388       -2.86297        0.13963
H          4.14540       -2.07027        0.07557
C          1.22310       -0.63028       -0.02159
C          1.20999        0.80297       -0.02394
C          2.42795        1.40909       -0.03243
H          2.66280        2.46993       -0.02328
C         -0.08997        1.44514       -0.02392
C         -1.22548        0.62937       -0.01939
C         -2.63450        0.95311       -0.01012
C         -3.28227       -0.33670       -0.01776
C         -4.71373       -0.49758       -0.00734
N         -5.85088       -0.58535        0.00304
C         -2.43042       -1.40942       -0.03608
C         -1.21100       -0.80364       -0.02340
C          0.08967       -1.44494       -0.02480
H          0.21222       -2.52522       -0.02729
H         -2.66374       -2.47017       -0.02268
N         -3.13407        1.94343        0.00000
H         -4.14247        2.06875        0.07484
H         -2.72332        2.86339        0.13946
H         -0.21268        2.52492       -0.02733
