27
Coordinates from ORCA-job ./opt_b97-3c_parallel
N          1.76335        4.30124       -0.26803
C          1.82209        3.16175       -0.21286
C          1.92237        1.73934       -0.09721
C          3.15862        1.15602       -0.17370
C          2.77924       -0.15816       -0.04312
C          3.94467       -0.98671       -0.04387
N          4.86223       -1.66733       -0.01886
C          1.38758       -0.46663        0.14455
C          0.84308        0.83025        0.14236
C         -0.56757        1.10258        0.05765
C         -1.20824        2.39621        0.06280
N         -1.72416        3.41522        0.05725
C         -1.35602       -0.06196        0.01565
C         -2.79456       -0.10219       -0.02342
C         -3.99358        0.67654       -0.02860
N         -4.96814        1.27465       -0.01906
C         -2.90460       -1.54081       -0.00288
C         -1.72673       -2.44677        0.03739
C         -0.83318       -1.41622        0.03887
C          0.61000       -1.61326        0.02833
C          1.25130       -2.90056       -0.07344
N          1.75342       -3.92509       -0.13541
H         -1.40258       -3.48633        0.05911
N         -3.68045       -2.32892       -0.01164
H         -4.53452       -1.77280        0.00366
H         -3.96672       -3.30271       -0.09578
H          4.00319        1.56631        0.37858
