25
Coordinates from ORCA-job ./opt_b97-3c_parallel
N         -2.21298       -3.75703       -0.50406
C         -2.18220       -2.63298       -0.30565
C         -2.15389       -1.23190       -0.01554
C         -3.26843       -0.46267       -0.20888
C         -2.66320        0.75720       -0.04947
C         -3.51370        1.90600       -0.06436
N         -4.16976        2.84180       -0.06311
C         -1.29031        0.84649        0.36416
C         -1.00385       -0.53616        0.46542
C          0.31854       -1.06027        0.24994
C          1.31607       -0.10503        0.03127
C          2.70945       -0.40850       -0.13285
C          3.47933       -1.61253       -0.08273
N          4.09989       -2.56921       -0.01082
C          3.02836        0.99738       -0.06515
C          2.12469        2.17724        0.02785
C          1.06983        1.31828        0.01936
C         -0.31107        1.75438       -0.02376
H         -0.59652        2.72523       -0.42491
H          1.96889        3.25272        0.09304
N          4.01605        1.49596       -0.06774
H          4.49560        2.38939       -0.16085
H          4.73786        0.78133        0.01316
H          0.57463       -2.11699        0.26718
H         -4.20075       -0.69808        0.30051
