24
Coordinates from ORCA-job ./opt_b97-3c_parallel
N         -2.79747       -3.53352        0.02002
C         -2.38032       -2.46936        0.02061
C         -1.88020       -1.12887       -0.00984
C         -2.53843        0.15049       -0.01636
C         -1.39232        1.01811        0.04450
C         -1.51112        2.44436        0.10795
N         -1.64070        3.57951        0.14208
C         -0.17372        0.24997        0.02278
C         -0.44411       -1.16019       -0.05681
C          0.68789       -2.04980       -0.10544
C          1.94982       -1.36305       -0.00835
N          3.08488       -2.07365        0.00993
C          3.50393       -1.04726        0.13581
C          3.56331        0.31016        0.34456
C          2.24772        0.01876        0.14909
C          1.10963        0.93046        0.07994
C          1.57795        2.28788       -0.08598
N          1.95809        3.35946       -0.20378
H          4.10760        0.95138       -0.34531
H          4.55370       -1.38025        0.09476
H          0.59654       -3.12965       -0.15914
N         -3.63299        0.29584       -0.05000
H         -4.11310        1.19334       -0.00642
H         -4.34935       -0.42706       -0.00556
