23
Coordinates from ORCA-job ./opt_b97-3c_parallel
N         -2.84077       -3.48056        0.02389
C         -2.59439       -2.36553        0.00138
C         -2.23883       -0.98221       -0.02580
C         -3.05644        0.09377       -0.23962
C         -2.04472        0.98858       -0.09751
C         -2.34108        2.38842       -0.06969
N         -2.53927        3.51320       -0.04030
C         -0.73197        0.43784       -0.00111
C         -0.79477       -0.98961       -0.08496
C          0.51547       -1.59589       -0.06465
C          1.64966       -0.70452       -0.00114
N          2.97098       -0.92948       -0.05603
C          3.58536        0.25435        0.07105
C          2.88575        1.41137        0.25274
C          1.71433        0.73039        0.13293
C          0.39608        1.32991        0.10514
H          0.43542        2.41281       -0.00147
H          3.08333        2.29318       -0.35385
N          4.66700        0.02356        0.03662
H          5.37960        0.74554        0.14066
H          5.17058       -0.86229       -0.01402
H          0.63689       -2.67484       -0.07677
H         -3.99044        0.20472        0.30726
