24
Coordinates from ORCA-job ./opt_b97-3c_parallel
N         -4.56493       -1.85069        0.00258
C         -3.73767       -1.06465       -0.04368
C         -2.67037       -0.11616       -0.08806
C         -3.11087        1.19037       -0.17303
C         -1.91623        1.87792       -0.11065
C         -1.89664        3.30509       -0.04863
N         -1.84387        4.44477        0.00935
C         -0.76599        1.03531       -0.03037
N          0.54464        1.37568       -0.01715
C          1.37531        0.30563        0.01849
C          2.79226        0.34770        0.02176
C          3.80272        1.35530        0.01298
N          4.64539        2.12595        0.00564
C          3.12321       -1.06190        0.02880
N          2.02278       -1.86005        0.03363
C          0.97960       -1.01358        0.02602
C         -0.38309       -1.33968        0.00660
C         -0.84520       -2.70400       -0.00542
N         -1.18854       -3.79284       -0.01512
C         -1.24764       -0.24187       -0.02021
N          4.00731       -1.72792        0.02853
H          4.86355       -1.17156        0.00383
H          4.30976       -2.70233        0.00477
H         -3.98755        1.53579        0.37330
