25
Coordinates from ORCA-job ./opt_b97-3c_parallel
N          1.84634        4.44954       -0.00799
C          1.86083        3.30916        0.05950
C          1.86781        1.88053        0.10587
C          3.08143        1.22804        0.18081
C          2.68192       -0.09117        0.09019
C          3.78858       -0.99473        0.04923
N          4.65530       -1.73733       -0.00390
C          1.26475       -0.25662        0.01475
C          0.74442        1.00429        0.02051
N         -0.57393        1.30735        0.00779
C         -1.38945        0.22154       -0.02224
C         -2.82901        0.30698       -0.02731
C         -3.72393        1.42109       -0.01198
N         -4.46505        2.29045        0.00202
C         -3.27652       -1.08488       -0.02409
C         -2.08379       -1.98015       -0.02815
C         -0.93171       -1.08257       -0.02565
C          0.43435       -1.37725       -0.00684
C          0.93551       -2.72713        0.01130
N          1.32024       -3.80288        0.02751
H         -1.93683       -3.05861       -0.02338
N         -4.17972       -1.71792       -0.00993
H         -4.59714       -2.64691        0.00690
H         -4.94853       -1.04933        0.00180
H          3.95431        1.59940       -0.35381
