23
Coordinates from ORCA-job ./opt_b97-3c_parallel
N         -3.35426       -2.99953        0.00824
C         -2.83701       -1.98240       -0.04206
C         -2.14754       -0.73129       -0.09128
C         -2.98784        0.35968       -0.19783
C         -2.08680        1.40080       -0.10160
C         -2.54139        2.75369       -0.04228
N         -2.86901        3.84675        0.01180
C         -0.72488        0.98088       -0.00743
N          0.40538        1.72525        0.00045
C          1.55928        1.00924        0.02247
N          2.80627        1.47682        0.02303
C          3.52582        0.33531        0.02443
C          2.97055       -0.92595        0.02465
C          1.59610       -0.37559        0.02488
C          0.41357       -1.12505        0.00999
C          0.43226       -2.56373       -0.01167
N          0.47514       -3.70513       -0.02848
C         -0.76392       -0.37966       -0.00590
H          3.58210       -1.82650        0.01874
N          4.59949        0.60591        0.01204
H          5.35826       -0.07626       -0.00219
H          5.05143        1.52105       -0.00141
H         -3.95230        0.39495        0.30696
