28
Coordinates from ORCA-job ./opt_b97-3c_parallel
N         -1.90560       -4.21532       -0.00234
C         -1.88029       -3.07271       -0.00186
C         -1.89429       -1.63950       -0.00132
C         -2.96925       -0.67113       -0.00162
C         -2.45778        0.69283       -0.00093
C         -3.33863        1.82145       -0.00099
N         -4.06666        2.70257       -0.00126
C         -1.02317        0.52643       -0.00053
C         -0.70794       -0.85117       -0.00034
C          0.61852       -1.39283        0.00010
C          1.62595       -0.42512        0.00094
C          3.03414       -0.70415        0.00156
C          3.79831       -1.91009        0.00178
N          4.43435       -2.85796        0.00203
C          3.44908        0.67916        0.00233
C          2.48352        1.81166        0.00197
C          1.38693        0.99918        0.00118
C          0.00550        1.47401        0.00022
C         -0.29939        2.88484        0.00026
N         -0.52411        4.00397        0.00001
H          2.40379        2.89674        0.00218
N          4.45182        1.14578        0.00325
H          4.89074        2.06505        0.00423
H          5.21006        0.46443        0.00356
H          0.88297       -2.44853       -0.00002
N         -4.01618       -1.03190       -0.00242
H         -4.37940       -1.98385       -0.00272
H         -4.82314       -0.40944       -0.00266
