24
Coordinates from ORCA-job ./opt_b97-3c_parallel
N         -2.46509       -3.62744       -0.01169
C         -2.87712       -2.56296        0.00407
C         -2.28808       -1.26058        0.00266
C         -3.35997       -0.29210        0.00283
C         -2.79657        1.03696        0.00197
C         -3.79448        2.06018        0.00243
N         -3.51105        3.16787        0.00214
C         -1.43757        0.86359        0.00126
N         -0.49101        1.88063        0.00104
C          0.83154        1.45601        0.00068
N          1.86780        2.36097        0.00092
C          3.01308        1.60167        0.00009
C          2.63641        0.21582       -0.00079
C          3.61259       -0.82545       -0.00200
N          4.42435       -1.62725       -0.00292
C          1.19809        0.06173       -0.00001
C          0.22377       -1.00049        0.00094
C          0.60242       -2.37508        0.00136
N          0.95545       -3.46012        0.00215
C         -1.13357       -0.52176        0.00155
N          3.94357        2.20514        0.00017
H          4.27535        3.17192        0.00070
H          4.79337        1.63533        0.00000
H         -4.42404       -0.52082        0.00365
