20
Coordinates from ORCA-job ./opt_b97-3c_parallel
N         -2.20613       -3.67321       -0.00045
C         -1.99778       -2.55133       -0.00353
C         -1.68966       -1.15806       -0.00422
C         -2.55352       -0.08900       -0.01331
C         -1.81274        1.07326       -0.00289
C         -2.53109        2.30814       -0.00179
N         -2.59032        3.44864       -0.00016
C         -0.48406        0.73748       -0.00053
C         -0.35406       -0.67116       -0.00118
N          0.81748       -1.34422        0.00041
C          1.92163       -0.57169        0.00134
N          3.19762       -1.08231       -0.00002
C          4.02817        0.02870       -0.00007
C          3.24893        1.23769        0.00138
C          1.86961        0.85648        0.00206
C          0.68378        1.58366        0.00265
H          0.70743        2.67118        0.00383
H          3.67953        2.23432        0.00119
H          5.12317       -0.08821       -0.00128
H         -3.64017       -0.15635        0.01023
