22
Coordinates from ORCA-job ./opt_b97-3c_parallel
N         -2.50936       -3.67652       -0.07525
C         -2.32286       -2.55000       -0.08075
C         -2.03542       -1.15157       -0.07745
C         -2.93601       -0.11033       -0.12143
C         -2.19061        1.05433       -0.09102
C         -2.95197        2.26419       -0.13480
N         -2.53516        3.31759        0.01633
C         -0.85608        0.74662       -0.03919
C         -0.70660       -0.65511       -0.03177
N          0.47531       -1.31176       -0.00474
C          1.56888       -0.52356        0.01812
N          2.85758       -1.01113        0.02376
C          3.67931        0.11014        0.02885
C          2.87210        1.30567        0.02811
C          1.49722        0.90279        0.01881
C          0.29999        1.61031       -0.01441
H          0.30611        2.69865       -0.02180
H          3.27972        2.31276        0.02939
N          4.77095       -0.07324        0.03010
H          5.48022        0.66210        0.02083
H          5.29668       -0.94922        0.01647
H         -3.90595       -0.18351        0.36873
