25
Coordinates from ORCA-job ./opt_b97-3c_parallel
N          3.22371        3.11236        0.01731
C          2.72090        2.08879       -0.02455
C          2.07821        0.81112       -0.03788
C          3.01963       -0.18524       -0.15894
C          2.19790       -1.27724       -0.07608
C          2.67372       -2.62162       -0.18267
N          3.05091       -3.69982       -0.22430
C          0.83502       -0.95295        0.17748
C          0.70042        0.44774        0.16037
C         -0.52938        1.08963        0.02127
C         -0.57493        2.52610       -0.09416
N         -0.61650        3.66602       -0.16403
C         -1.71790        0.24119        0.03461
C         -3.00704        0.71611        0.00919
C         -3.74304       -0.57541       -0.03271
C         -2.85059       -1.74363       -0.03297
C         -1.48997       -1.19806        0.01610
C         -0.26426       -1.86254        0.06881
H         -0.24009       -2.94990        0.05606
H         -3.04826       -2.81288       -0.04969
N         -4.84255       -0.62622       -0.05439
H         -5.50021        0.14625        0.03354
H         -5.35314       -1.47675        0.17509
H         -3.22999        1.78054        0.02304
H          3.95833       -0.15427        0.39064
