26
Coordinates from ORCA-job ./opt_b97-3c_parallel
N         -4.32181       -2.05852        0.30081
C         -3.58256       -1.19070        0.22201
C         -2.67839       -0.09169        0.07671
C         -3.16441        1.18684        0.15319
C         -1.97937        1.87147        0.04967
C         -2.04445        3.30019        0.03207
N         -2.06754        4.44147        0.00157
C         -0.76774        1.13794       -0.17851
C         -1.27289       -0.19211       -0.17742
C         -0.47557       -1.39910       -0.07290
C         -0.85236       -2.79022       -0.08763
N         -1.13770       -3.89678       -0.08762
C          0.88748       -1.08882       -0.00403
C          2.11230       -1.90892        0.03008
C          3.34066       -1.06720        0.04382
C          2.82823        0.28760        0.02921
C          3.58542        1.50118        0.03656
N          4.16449        2.48644        0.03060
C          1.39415        0.24830        0.00537
C          0.58069        1.44097       -0.00248
H          0.88240        2.47061        0.17795
N          4.27985       -1.64384        0.04573
H          4.68497       -2.55979       -0.13812
H          5.04310       -0.97014        0.00739
H          2.02332       -2.99361        0.02475
H         -4.03814        1.48748       -0.42192
