21
Coordinates from ORCA-job ./opt_b97-3c_parallel
N          1.62873        4.08497       -0.00058
C          1.64314        2.94311       -0.04924
C          1.69812        1.51528       -0.09298
C          2.95824        0.98009       -0.20391
C          2.62348       -0.35271       -0.11930
C          3.58119       -1.40975       -0.04673
N          4.32212       -2.27672        0.01975
C          1.23340       -0.69143       -0.02541
C          0.64926        0.55299       -0.01202
N         -0.67185        0.82444        0.01426
C         -1.44926       -0.27688        0.03465
C         -2.85811       -0.32215        0.03334
C         -3.91215        0.64115        0.00654
N         -4.73688        1.43341       -0.00412
C         -3.27020       -1.62542        0.02038
N         -2.14625       -2.35015        0.01718
C         -1.03775       -1.58710        0.02478
C          0.38151       -1.86167        0.01346
H          0.77870       -2.87132        0.02919
H         -4.22146       -2.17839        0.00589
H          3.79910        1.38510        0.35564
