22
Coordinates from ORCA-job ./opt_b97-3c_parallel
N          1.98565        3.69396        0.00515
C          1.77934        2.57065       -0.03225
C          1.49267        1.16960       -0.05008
C          2.62620        0.40611       -0.19568
C          2.07859       -0.84649       -0.08345
C          2.87132       -2.03630       -0.08296
N          3.49240       -2.99485       -0.04532
C          0.65756       -0.85470        0.04367
C          0.23651        0.48394        0.05162
C         -1.10587        0.81891        0.04228
C         -1.55586        2.18957        0.03364
N         -1.89504        3.27948        0.02684
C         -1.98912       -0.27343        0.02113
N         -3.32917       -0.21754       -0.00208
C         -3.20298       -1.32460       -0.07313
C         -2.55838       -2.51892       -0.29799
C         -1.54958       -1.64282       -0.06332
C         -0.15134       -2.04231        0.06726
H          0.14747       -3.08638        0.00776
H         -2.72269       -3.37746        0.34777
H         -4.28608       -1.52435       -0.02561
H          3.56747        0.66241        0.28721
