22
Coordinates from ORCA-job ./opt_b97-3c_parallel
N          4.34914        0.13729       -0.06785
C          3.28001        0.54067       -0.06428
C          1.95691        1.08171       -0.04103
C          1.65661        2.40985        0.00008
C          0.34220        2.60001        0.02833
C         -0.31254        1.26875        0.00174
C          0.74199        0.32301       -0.04771
C          0.65895       -1.11711       -0.07631
C          1.62660       -2.18104        0.04552
N          2.38186       -3.03376        0.13706
C         -0.75777       -1.49437       -0.12612
C         -1.20165       -2.77247       -0.26980
C         -2.35654       -2.04649       -0.11607
N         -3.02114       -1.15610       -0.03692
C         -1.83173       -0.53577       -0.03349
C         -1.63020        0.85232        0.01933
C         -2.71428        1.80152        0.08114
N         -3.56078        2.56754        0.12875
H         -3.17607       -2.78144       -0.06641
H         -0.93313       -3.54630        0.44581
H         -0.07852        3.60237        0.06324
H          2.39478        3.20855        0.00868
