25
Coordinates from ORCA-job ./opt_b97-3c_parallel
N         -2.00814       -3.93313        0.00663
C         -2.00104       -2.79102        0.00302
C         -1.93103       -1.35872       -0.00168
C         -2.90061       -0.39743       -0.00686
C         -2.14653        0.81593       -0.01011
C         -2.61606        2.16934       -0.01677
N         -2.43159        3.29659        0.01254
C         -0.77792        0.75886       -0.00713
C         -0.69879       -0.61490       -0.00204
N          0.43460       -1.35082        0.00261
C          1.61190       -0.69877        0.00303
N          2.76799       -1.45653        0.00728
C          3.90906       -0.67547        0.00735
C          3.16716        0.46610        0.00321
C          1.70909        0.73962       -0.00075
C          0.42765        1.40616       -0.00512
C          0.97232        2.72494       -0.00117
N          1.45069        3.76214        0.00212
H          3.64371        1.44585        0.00242
N          4.97962       -0.95328        0.00986
H          5.76588       -0.30056        0.01075
H          5.40489       -1.88232        0.01103
N         -4.00019       -0.50243       -0.00854
H         -4.61869       -1.31387       -0.00760
H         -4.60950        0.31595       -0.00595
