19
Coordinates from ORCA-job ./opt_b97-3c_parallel
N         -1.97877       -3.37198        0.19184
C         -2.35739       -2.39946       -0.27388
C         -1.69489       -1.14049       -0.14065
C         -2.55077        0.00759       -0.00695
C         -1.72165        1.16991        0.11284
C         -2.41658        2.41096        0.25247
N         -1.93923        3.39257       -0.08677
C         -0.44096        0.69312        0.05062
N          0.70167        1.48086        0.12516
C          1.91259        0.79409        0.03836
N          3.24548        1.10166        0.05496
C          3.90048       -0.10871       -0.08181
C          3.10992       -1.22376       -0.18789
C          1.88468       -0.63163       -0.11271
N          0.77454       -1.30463       -0.17986
C         -0.38396       -0.72430       -0.10629
H          3.33567       -2.12242        0.38202
H          5.00136       -0.08680       -0.09697
H         -3.63751       -0.00501        0.00066
