26
Coordinates from ORCA-job ./opt_b97-3c_parallel
N         -5.02101       -0.65442       -0.00300
C         -4.06122       -0.03509       -0.00314
C         -2.88421        0.77719       -0.00460
C         -2.87054        2.13768       -0.01246
C         -1.62595        2.60237       -0.01084
C         -0.68076        1.45370       -0.00133
C         -1.53366        0.30280        0.00241
C         -1.10827       -1.07867        0.01392
C         -1.85749       -2.31010        0.01341
N         -2.43705       -3.29494        0.01228
C          0.28768       -1.15877        0.02142
C          1.21378       -2.30510        0.02843
C          2.63493       -1.86965        0.02457
C          2.53733       -0.42545        0.01506
C          3.68187        0.43419        0.00373
N          4.61866        1.08877       -0.00750
C          1.15487       -0.01671        0.01678
C          0.71296        1.36817        0.00541
C          1.43956        2.61302        0.00418
N          2.00070        3.60876        0.00307
N          3.38772       -2.67495        0.02538
H          3.46181       -3.67736       -0.13595
H          4.33321       -2.29738       -0.02527
H          0.82851       -3.32303        0.03386
H         -1.42939        3.67220       -0.01580
H         -3.76094        2.76252       -0.01863
