20
Coordinates from ORCA-job ./opt_b97-3c_parallel
N         -2.83264       -3.36134       -0.02360
C         -2.38367       -2.31188        0.02728
C         -1.78416       -1.01550        0.08507
C         -2.57157        0.11129        0.20843
C         -1.62851        1.11247        0.08514
C         -2.06071        2.47415        0.01916
N         -2.42100        3.55743       -0.00747
C         -0.28913        0.63015       -0.01846
N          0.87506        1.31673       -0.01598
C          2.00182        0.55039       -0.02787
N          3.26325        0.99694       -0.02067
C          3.47797       -0.10108       -0.02031
C          3.28731       -1.46551       -0.01415
C          1.95695       -0.83518       -0.02750
C          0.74149       -1.52783       -0.01768
C         -0.39220       -0.72519       -0.01515
H          0.68904       -2.61333        0.00681
H          4.13250       -2.14888       -0.00267
H          4.56128        0.09971       -0.00214
H         -3.54954        0.18213       -0.26314
