23
Coordinates from ORCA-job ./opt_b97-3c_parallel
N         -4.24700       -2.79425       -0.00542
C         -3.56990       -1.87601        0.05969
C         -2.71368       -0.73299        0.10298
C         -3.28263        0.52170        0.19475
C         -2.16599        1.32917        0.10432
C         -2.35791        2.74423        0.05150
N         -2.53721        3.87112       -0.01002
C         -0.94159        0.60361        0.00635
C         -1.29028       -0.71141        0.00525
N         -0.40304       -1.72933        0.00047
C          0.89385       -1.31825       -0.02066
C          2.16784       -2.04018       -0.02331
C          3.27277       -1.04298       -0.02490
C          2.65822        0.27609       -0.02937
C          3.47455        1.44841       -0.01246
N          4.15616        2.36634        0.00156
C          1.23764        0.03257       -0.02356
N          0.33256        1.04655        0.00022
N          4.20700       -1.62953       -0.01155
H          4.94130       -0.92288        0.00205
H          4.67033       -2.53626        0.00459
H          1.94428       -3.10482       -0.01565
H         -4.20088        0.76593       -0.33559
