21
Coordinates from ORCA-job ./opt_b97-3c_parallel
N         -4.03838       -1.08640       -0.06910
C         -3.12868       -0.39637       -0.11630
C         -2.00153        0.48327       -0.13935
C         -2.33950        1.78879        0.06398
C         -1.23852        2.52009        0.02183
C         -0.19812        1.68532       -0.22950
C         -0.58124        0.30401       -0.31192
C          0.25537       -0.79115       -0.11817
C         -0.26571       -2.13531       -0.05418
N         -0.69200       -3.19444       -0.00895
C          1.62097       -0.52017        0.02464
N          2.61610       -1.40421        0.18371
C          3.19172       -0.44482        0.20856
C          3.49188        0.90020        0.21049
C          2.14887        0.80162        0.06029
C          1.18282        1.87703        0.13699
H          1.55960        2.89150        0.02937
H          4.10925        1.33524       -0.57161
H          4.16081       -0.96951        0.18613
H         -1.18088        3.59956        0.14170
H         -3.34379        2.17441        0.23180
