25
Coordinates from ORCA-job ./opt_b97-3c_parallel
N          3.82007        3.12485        0.01699
C          3.39499        2.06410        0.01775
C          2.82661        0.75384        0.01791
C          3.58539       -0.37944        0.01645
C          2.78351       -1.43378        0.00679
C          1.50184       -0.98054        0.00274
C          1.41966        0.45949        0.01058
C          0.26596        1.24070       -0.00820
C         -0.92109        0.42957       -0.02750
C         -2.24955        0.96798       -0.02804
C         -2.54004        2.36858       -0.01529
N         -2.80450        3.48040       -0.00149
C         -3.20108       -0.12528       -0.04131
C         -2.34064       -1.34116       -0.04370
C         -0.90914       -0.99191       -0.03240
C          0.26689       -1.74329       -0.01885
C          0.20356       -3.18227       -0.01765
N          0.16006       -4.32422       -0.00709
H         -2.62868       -2.39039       -0.04950
N         -4.29251       -0.27760       -0.04347
H         -4.80248        0.60142        0.03348
H         -4.94762       -1.02102        0.18939
H          0.34996        2.32510       -0.01036
H          3.09742       -2.47503        0.00426
H          4.67243       -0.41354        0.02321
