24
Coordinates from ORCA-job ./opt_b97-3c_parallel
N         -4.83748       -0.52313       -0.00057
C         -3.90398        0.13469       -0.00246
C         -2.70883        0.91727       -0.00804
C         -2.87926        2.27149       -0.00005
C         -1.69049        2.85381       -0.00426
C         -0.75249        1.87319       -0.01839
C         -1.31561        0.53972       -0.01929
C         -0.62351       -0.67752       -0.04087
C         -1.36692       -1.91308       -0.03543
N         -1.95085       -2.89400       -0.01928
C          0.79889       -0.44143       -0.05495
C          1.84808       -1.40856        0.07208
C          1.67177       -2.82939        0.07812
N          1.55862       -3.96602        0.05332
C          3.09553       -0.85801        0.20408
C          2.78952        0.47250        0.04806
C          3.82067        1.46377        0.01490
N          4.61862        2.28006       -0.00613
C          1.40516        0.83518       -0.04285
C          0.68773        2.02738       -0.00766
H          1.21111        2.97958        0.03223
H          3.98274       -1.30957       -0.23277
H         -1.50074        3.92458       -0.00162
H         -3.83414        2.79471        0.00653
