21
Coordinates from ORCA-job ./opt_b97-3c_parallel
N         -3.04548       -3.51901        0.00252
C         -2.62518       -2.45751        0.00166
C         -2.05611       -1.14841        0.00056
C         -2.86944        0.02748       -0.00008
C         -2.00275        1.16709       -0.00105
C         -2.48959        2.50783       -0.00102
N         -2.83259        3.59699       -0.00082
C         -0.70354        0.72183       -0.00124
C         -0.75513       -0.71436        0.00014
N          0.38248       -1.44900        0.00139
C          1.58375       -0.73742        0.00083
C          2.86428       -1.18489        0.00381
C          3.67705       -0.08057       -0.00052
N          2.87763        1.06109       -0.00177
C          1.54881        0.68858       -0.00102
N          0.43105        1.34640       -0.00191
N          4.77700        0.04698       -0.00085
H          5.37219        0.87782       -0.00164
H          5.42590       -0.74261       -0.00137
H          3.18030       -2.22668       -0.00326
H         -3.95571        0.05177        0.00035
