26
Coordinates from ORCA-job ./opt_b97-3c_parallel
N          2.76981        3.95928       -0.00069
C          2.40043        2.87832       -0.00028
C          1.98390        1.50742       -0.00011
C          2.53491        0.16523       -0.00375
C          1.87936       -1.13087       -0.00229
C          2.42718       -2.45339       -0.00628
N          2.89433       -3.49590       -0.00968
C          0.61087       -0.45235        0.00383
C          0.66871        0.93362        0.00490
N         -0.42923        1.72850        0.01039
C         -1.64146        1.12633        0.01514
C         -3.00402        1.71179        0.02139
C         -3.96112        0.57722        0.02421
C         -3.18481       -0.68417        0.01978
C         -1.76602       -0.25880        0.01431
C         -0.64097       -1.08440        0.00888
C         -0.79064       -2.51877        0.00765
N         -0.92465       -3.65365        0.00688
H         -3.63506       -1.67461        0.02042
N         -5.05894        0.66768        0.02882
H         -5.69847       -0.12488        0.03070
H         -5.63370        1.50852        0.03235
H         -3.16563        2.78716        0.02314
N          3.64528        0.20169       -0.00856
H          4.28378       -0.59308       -0.01230
H          4.22757        1.03836       -0.01022
