25
Coordinates from ORCA-job ./opt_b97-3c_parallel
N          4.29987        1.97558        0.00906
C          3.64167        1.04137        0.01483
C          2.78522       -0.10384        0.01936
C          3.47468       -1.28219        0.01125
C          2.60908       -2.28329        0.00649
C          1.36222       -1.74796        0.01357
C          1.35718       -0.30498        0.02304
C          0.24489        0.54262       -0.00010
C          0.47563        1.96561       -0.01343
N          0.67166        3.09134       -0.02284
C         -0.98804       -0.21489       -0.01875
C         -2.31282        0.34961       -0.01777
C         -2.64426        1.74096       -0.00124
N         -2.94542        2.84367        0.01310
C         -3.29989       -0.71173       -0.03397
C         -2.47632       -1.95060       -0.04109
C         -1.03938       -1.63784       -0.02842
C          0.09546       -2.44334       -0.01582
H         -0.00530       -3.52608       -0.01972
H         -2.71811       -3.01138       -0.04961
N         -4.38541       -0.90239       -0.03584
H         -5.13557       -1.55045        0.19539
H         -4.78332        0.03519        0.00174
H          2.85403       -3.34281        0.00119
H          4.55789       -1.39081        0.01021
