21
Coordinates from ORCA-job ./opt_b97-3c_parallel
N          4.03895        1.13456        0.00174
C          3.18699        0.37302        0.00075
C          2.09003       -0.54161       -0.00027
C          2.38664       -1.87638        0.00128
C          1.27330       -2.60776        0.00125
C          0.12099       -1.67850       -0.00037
N         -1.21471       -1.88849       -0.00047
C         -2.01484       -0.79766       -0.00062
C         -3.48119       -0.62643       -0.00033
C         -3.71892        0.68315       -0.00039
C         -2.63129        1.44877       -0.00083
C         -1.50752        0.49143       -0.00088
C         -0.13493        0.74001       -0.00135
C          0.39406        2.08351       -0.00154
N          0.79981        3.15417       -0.00119
C          0.66700       -0.40372       -0.00096
H         -2.71235        2.53343       -0.00103
H         -4.72666        1.09203       -0.00034
H         -4.28793       -1.35502       -0.00010
H          1.29907       -3.69461        0.00280
H          3.39080       -2.29502        0.00280
