19
Coordinates from ORCA-job ./opt_b97-3c_parallel
N         -3.81597       -1.90212        0.00121
C         -3.08083       -1.02672       -0.00290
C         -2.13392        0.04387       -0.00203
C         -2.55408        1.34116       -0.00089
C         -1.51087        2.17149       -0.00019
C         -0.27230        1.35062       -0.00093
C         -0.70854        0.03649       -0.00200
N          0.06738       -1.06708       -0.00184
C          1.40301       -0.85252       -0.00072
C          2.47296       -1.86211        0.00079
C          3.12520       -0.64901        0.00159
N          3.29339        0.45662        0.00190
C          1.95560        0.40926        0.00022
C          1.14780        1.61014       -0.00044
H          1.56804        2.61077       -0.00054
H          4.20059       -0.89120        0.00179
H          3.02261       -2.80037        0.00160
H         -1.65378        3.24944        0.00082
H         -3.59509        1.65641       -0.00044
