19
Coordinates from ORCA-job ./opt_b97-3c_parallel
N          3.74042        1.98676        0.00176
C          3.02616        1.09436       -0.00372
C          2.10593        0.00131       -0.00278
C          2.53495       -1.30159       -0.00290
C          1.50760       -2.15702       -0.00145
C          0.29512       -1.31217       -0.00062
C          0.68026        0.00340       -0.00149
N         -0.16444        1.05781       -0.00110
C         -1.48936        0.74352        0.00024
N         -2.50882        1.61084        0.00072
C         -3.09865        0.66073        0.00170
C         -3.40787       -0.68189        0.00272
C         -1.94061       -0.56661        0.00130
C         -1.05266       -1.64692        0.00089
H         -1.39367       -2.67904        0.00171
H         -4.44177       -1.01835        0.00386
H         -4.02790        1.25278        0.00094
H          1.67381       -3.23169       -0.00123
H          3.58017       -1.60309       -0.00387
