20
Coordinates from ORCA-job ./opt_b97-3c_parallel
N         -4.56656       -1.44957        0.00032
C         -3.72371       -0.67764       -0.00073
C         -2.64407        0.25792       -0.00160
C         -2.81952        1.61818       -0.00100
C         -1.64864        2.26446       -0.00042
C         -0.61726        1.20521       -0.00088
C         -1.24432       -0.01362       -0.00170
N         -0.61407       -1.20866       -0.00186
C          0.74611       -1.15202       -0.00139
N          1.58041       -2.19885       -0.00147
C          2.34792       -1.38440       -0.00073
C          2.90263       -0.12262       -0.00002
C          3.88234        0.38053        0.00052
N          4.67825        1.20179        0.00009
C          1.43851        0.04802       -0.00059
C          0.76954        1.27793       -0.00026
H          1.29950        2.22717        0.00052
H          3.13483       -2.15628       -0.00055
H         -1.61039        3.35105        0.00041
H         -3.78911        2.11113       -0.00096
