20
Coordinates from ORCA-job ./opt_b97-3c_parallel
N         -3.43412       -2.72978        0.02182
C         -3.03468       -1.65887        0.01079
C         -2.49963       -0.33362       -0.00181
C         -3.31669        0.75784       -0.00133
C         -2.60037        1.88238       -0.00102
C         -1.16220        1.50994       -0.00111
C         -1.14808        0.11935       -0.00201
N         -0.05704       -0.67845       -0.00160
C          1.09916        0.00979       -0.00149
C          2.41583       -0.48812       -0.00069
C          3.13722       -1.72022       -0.00083
N          3.68755       -2.72188        0.00067
C          3.08268        0.79758        0.00021
N          2.52246        1.77810        0.00020
C          1.23764        1.36833       -0.00084
C          0.08875        2.24305       -0.00066
H          0.15413        3.32608        0.00013
H          4.18130        0.86475        0.00123
H         -3.08564        2.85525       -0.00040
H         -4.40374        0.71834       -0.00140
