22
Coordinates from ORCA-job ./opt_b97-3c_parallel
N         -4.81863       -1.64924       -0.00568
C         -4.02143       -0.83033       -0.00513
C         -2.99633        0.16544       -0.00435
C         -3.27007        1.50390       -0.00792
C         -2.14087        2.21335       -0.00555
C         -1.00087        1.26266        0.00110
C         -1.58038        0.00433        0.00148
N         -0.90111       -1.16481        0.00790
C          0.44715       -1.02852        0.01378
C          1.55838       -1.98141        0.02135
C          2.83633       -1.21605        0.02335
C          2.48261        0.19532        0.01910
C          3.50281        1.19538        0.00454
N          4.34496        1.96728       -0.00738
C          1.04191        0.22461        0.01319
N          0.34596        1.38800        0.00663
N          3.73365       -1.85815        0.02806
H          3.95296       -2.84503       -0.08632
H          4.61728       -1.35133       -0.02024
H          1.24032       -3.02124        0.02139
H         -2.15679        3.30043       -0.00744
H         -4.26804        1.93304       -0.01243
