21
Coordinates from ORCA-job ./opt_b97-3c_parallel
N         -4.69420       -1.32751        0.00432
C         -3.83447       -0.57431        0.00292
C         -2.73377        0.33714        0.00119
C         -2.86409        1.70191        0.00034
C         -1.67255        2.30959        0.00006
C         -0.67590        1.21819        0.00076
C         -1.34429        0.01754        0.00143
N         -0.75907       -1.20267        0.00188
C          0.59892       -1.19288        0.00167
C          1.62682       -2.26452        0.00172
C          2.82807       -1.68551        0.00112
C          2.70983       -0.32634        0.00071
C          3.85127        0.53226        0.00065
N          4.74467        1.24496        0.00067
C          1.32255       -0.00477        0.00108
C          0.71327        1.25091        0.00062
H          1.27827        2.17979        0.00005
H          3.77210       -2.22559        0.00094
H          1.52310       -3.34673        0.00205
H         -1.59667        3.39433       -0.00065
H         -3.81695        2.22619       -0.00004
