20
Coordinates from ORCA-job ./opt_b97-3c_parallel
N          4.04166        2.15858        0.00154
C          3.35968        1.24148       -0.00114
C          2.47229        0.12238       -0.00426
C          3.03903       -1.12179       -0.00226
N          2.00286       -1.96796        0.00022
C          0.81143       -1.34501        0.00006
C          1.06599        0.00119       -0.00290
N          0.16043        1.00039       -0.00269
C         -1.13381        0.61537        0.00075
C         -2.27794        1.55124        0.00246
C         -3.21643        0.54662        0.00711
N         -2.87599       -0.75714        0.00787
C         -1.54340       -0.70767        0.00366
C         -0.56594       -1.77656        0.00230
H         -0.84301       -2.82616        0.00154
N         -4.32038        0.62508        0.01152
H         -5.06959       -0.06740        0.00868
H         -4.78296        1.53427        0.02455
H         -2.55718        2.60297        0.00171
H          4.06764       -1.51351       -0.00193
