25
Coordinates from ORCA-job ./opt_b97-3c_parallel
N         -5.00481       -1.79520        0.00639
C         -4.21111       -0.97128        0.00369
C         -3.18934        0.02644        0.00051
C         -3.56703        1.33855        0.00129
N         -2.44012        2.04228        0.00122
C         -1.36806        1.16501        0.00042
C         -1.78625       -0.19950       -0.00016
C         -0.96584       -1.31914        0.00057
C          0.39484       -1.02548        0.00064
C          1.49023       -1.95768        0.00107
C          1.35481       -3.38243        0.00059
N          1.27694       -4.52252       -0.00241
C          2.62481       -1.05166        0.00031
C          2.23522        0.33883        0.00016
C          3.08130        1.49491       -0.00020
N          3.78909        2.39214       -0.00033
C          0.80416        0.34362        0.00066
C          0.03383        1.57933        0.00040
C          0.31837        2.99476        0.00004
N          0.56372        4.11101       -0.00022
N          3.66217       -1.43402       -0.00056
H          4.04866       -2.37622       -0.00225
H          4.45215       -0.78981       -0.00299
H         -1.35694       -2.33415        0.00078
H         -4.54336        1.84699        0.00186
