22
Coordinates from ORCA-job ./opt_b97-3c_parallel
N         -4.11824       -1.55395       -0.28265
C         -3.33893       -0.73315       -0.13236
C         -2.33318        0.26128        0.07001
C         -2.62593        1.66477       -0.10488
N         -1.75805        2.37969       -0.08638
C         -0.67696        1.65248        0.24986
C         -1.01019        0.29816        0.37105
C         -0.08109       -0.77499        0.22497
C         -0.32724       -2.19335        0.28438
N         -0.49923       -3.32153        0.32491
C          1.22169       -0.29925        0.05840
N          2.36507       -0.98791       -0.04078
C          3.30686       -0.03367       -0.14642
C          3.01830        1.30817       -0.15153
C          1.68780        1.06505       -0.00988
C          0.67864        2.11169        0.07388
H          0.94916        3.16251        0.01949
H          3.53076        1.99878        0.51601
N          4.26809       -0.57912       -0.21254
H          4.44266       -1.58411       -0.17999
H          5.18679       -0.13987       -0.27527
H         -3.60547        2.09404       -0.36661
