26
Coordinates from ORCA-job ./opt_b97-3c_parallel
N          2.43529        3.38775       -0.00668
C          2.15449        2.28074       -0.01019
C          1.84781        0.88156       -0.00642
C          2.87992       -0.12107       -0.00298
C          2.08328       -1.31903        0.00375
C          2.41563       -2.71093       -0.01256
N          2.68392       -3.82163        0.00473
C          0.65345       -1.16773        0.01569
C          0.54363        0.26500       -0.00106
C         -0.66953        1.06996       -0.00981
C         -0.92409        2.49482        0.02888
N         -1.15429        3.61259        0.05565
C         -1.94106        0.34167       -0.07094
C         -3.19352        0.84849       -0.26836
C         -3.79653       -0.35263       -0.03556
N         -3.04337       -1.45478        0.09431
C         -1.75467       -1.08089        0.03532
C         -0.57963       -1.90985        0.04369
H         -0.61448       -2.99488        0.01712
N         -4.86033       -0.65573        0.00601
H         -5.33043       -1.56264        0.00971
H         -5.60750        0.03934        0.00751
H         -3.53575        1.75441        0.22981
N          3.98497       -0.14599       -0.00306
H          4.58408       -0.96930       -0.00262
H          4.60212        0.66479       -0.00410
