20
Coordinates from ORCA-job ./opt_b97-3c_parallel
N          3.85279        1.92408       -0.00137
C          3.05398        1.10665       -0.00147
C          2.02957        0.11121       -0.00151
C          2.35584       -1.29408       -0.00104
N          1.52583       -2.05022       -0.00098
C          0.40494       -1.30210       -0.00148
C          0.67355        0.07966       -0.00184
C         -0.14740        1.25824       -0.00160
C         -1.50844        0.74682       -0.00081
C         -2.58578        1.56854       -0.00058
C         -3.65337        0.80471       -0.00032
C         -3.33058       -0.47675       -0.00014
C         -1.84783       -0.67730       -0.00043
C         -0.94114       -1.80505       -0.00067
H         -1.22926       -2.85105       -0.00032
H         -4.09574       -1.24926       -0.00008
H         -4.67399        1.17896       -0.00028
H         -2.57165        2.65613       -0.00099
H          0.20755        2.28618       -0.00122
H          3.36120       -1.74130       -0.00066
