23
Coordinates from ORCA-job ./opt_b97-3c_parallel
N         -4.28110       -1.91067       -0.00029
C         -3.61446       -0.98312       -0.00065
C         -2.73940        0.14590       -0.00111
C         -3.41346        1.33459       -0.00144
N         -2.53940        2.33613       -0.00174
C         -1.33139        1.67428       -0.00158
C         -1.31835        0.25067       -0.00120
C         -0.23102       -0.61085       -0.00097
C         -0.45688       -2.03219       -0.00060
N         -0.61396       -3.16372       -0.00028
C          0.99789        0.13686       -0.00107
C          2.22558       -0.45729       -0.00057
C          2.74864       -1.78719       -0.00004
N          3.20974       -2.83181        0.00042
C          3.12745        0.64898       -0.00064
N          2.44884        1.81323       -0.00105
C          1.11971        1.56748       -0.00134
C         -0.07572        2.39171       -0.00168
H         -0.07640        3.47801       -0.00190
N          4.20124        0.91708       -0.00037
H          4.80545        1.73877       -0.00062
H          4.82707        0.10981       -0.00014
H         -4.47142        1.64039       -0.00143
