21
Coordinates from ORCA-job ./opt_b97-3c_parallel
N         -4.93687       -1.30607       -0.00711
C         -4.02526       -0.61766        0.02648
C         -2.87904        0.23366        0.03210
C         -2.99325        1.67746        0.01874
N         -2.09658        2.36426        0.01752
C         -1.07277        1.48745        0.02931
C         -1.47188        0.18185        0.03850
N         -0.66975       -0.89904        0.01185
C          0.64413       -0.58150       -0.01744
C          1.72270       -1.51049       -0.09764
C          1.69230       -2.93936       -0.05775
N          1.66017       -4.07974        0.00550
C          2.96699       -0.93818       -0.19878
C          2.59350        0.38517       -0.12223
C          3.55645        1.43860       -0.05182
N          4.30481        2.29900        0.02078
C          1.19400        0.68327       -0.03006
C          0.32583        1.84545        0.01034
H          0.68771        2.86847        0.02449
H          3.81260       -1.31659        0.37142
H         -3.97443        2.17572        0.00251
