17
Coordinates from ORCA-job ./opt_b97-3c_parallel
C         -3.20162        0.02868       -0.00075
N         -2.51042       -1.12189       -0.00061
C         -1.20377       -0.66798       -0.00014
C         -1.18157        0.73105       -0.00008
C         -2.45714        1.13755       -0.00048
H         -2.81718        2.16330       -0.00055
C         -0.01484        1.45491        0.00022
C          1.14688        0.71722        0.00062
N          2.42136        1.18096        0.00098
C          3.09701       -0.03420        0.00107
N          2.43444       -1.16733        0.00086
C          1.22714       -0.69741        0.00050
C         -0.00145       -1.45709        0.00015
H         -0.01729       -2.54196        0.00004
H          4.19720       -0.04721        0.00134
H         -0.00777        2.54007        0.00034
H         -4.28690       -0.15285       -0.00107
