27
Coordinates from ORCA-job ./opt_b97-3c_parallel
N          2.79048        3.41148        0.01177
C          2.35457        2.35626        0.00811
C          1.84638        1.01843        0.00276
C          2.74105       -0.13115        0.00362
C          1.99798       -1.37197       -0.00043
C          2.40493       -2.74621        0.00156
N          2.76331       -3.83141        0.00238
C          0.63219       -0.96856       -0.00785
C          0.52290        0.44256       -0.00297
C         -0.73773        1.05301       -0.00018
C         -0.85544        2.49116        0.00455
N         -0.96409        3.62907        0.00816
C         -1.92955        0.20802       -0.00151
C         -3.22253        0.67628        0.00660
C         -3.95719       -0.61628        0.01230
C         -3.05902       -1.77992        0.00375
C         -1.69992       -1.22677       -0.00376
C         -0.47128       -1.88140       -0.00691
H         -0.44593       -2.96874       -0.00573
H         -3.30955       -2.83813        0.00463
N         -5.05736       -0.66318        0.02282
H         -5.55287       -1.54368        0.14919
H         -5.75646        0.07642        0.05912
H         -3.45820        1.73814        0.00829
N          3.84784       -0.16198        0.00221
H          4.56951       -0.88063       -0.00128
H          4.32731        0.73730       -0.00464
