22
Coordinates from ORCA-job ./opt_b97-3c_parallel
N         -4.26275       -1.32860       -0.01959
C         -3.42641       -0.55100       -0.00378
C         -2.34797        0.38578        0.01468
C         -2.79548        1.67731        0.02093
N         -1.76189        2.51403        0.02000
C         -0.69946        1.63734        0.00300
C         -0.93160        0.24080       -0.00971
C         -0.00509       -0.79394       -0.05575
C         -0.44500       -2.16459       -0.04624
N         -0.76855       -3.25936       -0.03354
C          1.40658       -0.45626       -0.10358
C          2.43425       -1.34094       -0.22560
C          3.33522       -0.33301       -0.05186
N          2.94830        0.94724        0.04420
C          1.60788        0.97350       -0.01679
C          0.66901        2.07454        0.00893
H          0.92067        3.13095        0.02344
N          4.43773       -0.42308       -0.02352
H          4.92297       -1.31848       -0.08732
H          5.16877        0.28801        0.00739
H          2.46951       -2.24514        0.38039
H         -3.77269        2.18492        0.02589
