28
Coordinates from ORCA-job ./opt_b97-3c_parallel
N         -3.93981       -2.67468       -0.00083
C         -3.26181       -1.75429       -0.00043
C         -2.48514       -0.54939        0.00008
C         -3.06121        0.77731       -0.00095
C         -1.94297        1.70285       -0.00011
C         -2.02747        3.12601       -0.00126
N         -2.13458        4.25961       -0.00224
C         -0.70582        0.97175        0.00170
C         -1.05285       -0.41176        0.00175
C         -0.09510       -1.50005        0.00341
C         -0.31627       -2.92025        0.00360
N         -0.47399       -4.05201        0.00347
C          1.22774       -1.04230        0.00414
C          2.53384       -1.73014        0.00572
C          3.68122       -0.78049        0.00662
C          3.02091        0.50969        0.00540
C          3.74048        1.74745        0.00557
N          4.37383        2.69903        0.00570
C          1.58954        0.33681        0.00389
C          0.62570        1.41479        0.00272
H          0.84771        2.47969        0.00241
N          4.72514       -1.14127        0.00800
H          5.11072       -2.08320        0.01055
H          5.52025       -0.50186        0.00923
H          2.56782       -2.81717        0.00637
N         -4.13621        1.05418       -0.00260
H         -4.95364        0.44386       -0.00337
H         -4.49222        2.00969       -0.00368
