17
Coordinates from ORCA-job ./opt_b97-3c_parallel
N          3.74250        1.99131        0.00544
C          3.05119        1.08225        0.00282
C          2.14740       -0.02361       -0.00064
C          2.50504       -1.33639       -0.00272
N          1.43942       -2.10457       -0.00372
C          0.35095       -1.26656       -0.00207
C          0.78626        0.03422        0.00022
N         -0.10087        1.01833        0.00251
C         -1.41942        0.75936        0.00251
N         -2.45324        1.65466        0.00444
C         -3.59766        0.87313        0.00306
N         -3.25540       -0.47550        0.00036
C         -1.88261       -0.58554       -0.00007
C         -0.97569       -1.60982       -0.00235
H         -1.29410       -2.65017       -0.00339
H         -4.63830        1.23427        0.00376
H          3.51693       -1.77136       -0.00372
