17
Coordinates from ORCA-job ./opt_b97-3c_parallel
N         -3.71352       -1.98799       -0.00110
C         -3.01840       -1.08253       -0.00236
C         -2.17660        0.06965        0.00119
C         -2.59353        1.37112        0.00364
N         -1.46015        2.07305        0.00502
C         -0.28639        1.33518        0.00361
C         -0.76294       -0.00088        0.00121
C          0.08010       -1.09368       -0.00112
C          1.42458       -0.78087       -0.00061
N          2.45673       -1.67495       -0.00253
C          3.60148       -0.89054       -0.00088
N          3.25462        0.45977        0.00177
C          1.88017        0.57073        0.00201
N          1.00313        1.53833        0.00396
H          4.68251       -1.10249       -0.00147
H         -0.28093       -2.11890       -0.00329
H         -3.58188        1.85752        0.00459
