19
Coordinates from ORCA-job ./opt_b97-3c_parallel
N          3.72607        2.20259       -0.02193
C          3.18132        1.20104        0.01790
C          2.44764       -0.02447        0.06388
C          3.20905       -1.15303        0.01620
N          2.03968       -1.75142       -0.05903
C          0.78045       -1.19359       -0.06113
C          1.09229        0.14455        0.04671
N          0.10238        1.03669        0.09508
C         -1.18071        0.62321        0.02983
N         -2.34728        1.34183        0.06132
C         -3.35728        0.38370       -0.04027
C         -2.83570       -0.89351       -0.15147
C         -1.47649       -0.75761       -0.08928
N         -0.46773       -1.58840       -0.12563
H         -3.34166       -1.75789        0.27784
N         -4.39000        0.79246       -0.02776
H         -5.25757        0.24701       -0.02547
H         -4.71653        1.76373       -0.01914
H          4.26351       -1.47378        0.02614
