23
Coordinates from ORCA-job ./opt_b97-3c_parallel
N          1.83968        3.64578        0.00030
C          1.65268        2.51838        0.00077
C          1.47449        1.09664        0.00100
C          2.44602        0.11148        0.00115
C          1.82175       -1.19139        0.00123
C          2.41191       -2.49691        0.00219
N          3.08751       -3.41753        0.00017
C          0.46642       -0.97845        0.00099
C          0.20991        0.41866        0.00107
C         -1.07551        0.92566        0.00128
C         -1.49763        2.29559        0.00147
N         -1.72718        3.41529       -0.00006
C         -2.08717       -0.02109        0.00129
N         -3.43546        0.18898        0.00133
C         -3.90850       -1.11449        0.00118
N         -3.01073       -2.06691        0.00139
C         -1.88338       -1.42815        0.00122
C         -0.57819       -1.88162        0.00102
H         -0.38171       -2.94947        0.00105
H         -4.98695       -1.33376        0.00103
N          3.54296        0.25314        0.00128
H          4.03105        1.14756       -0.00003
H          4.25624       -0.47428        0.00020
