25
Coordinates from ORCA-job ./opt_b97-3c_parallel
N          5.17878        0.39096        0.04370
C          4.05193        0.20665        0.00194
C          2.64332       -0.05474       -0.02099
C          1.99571        1.14446       -0.16886
C          0.82760        0.45286       -0.07699
C          0.89738       -0.97366       -0.02874
C          2.31463       -1.38510        0.01092
H          3.06986       -2.16814        0.04712
C         -0.20611       -1.82028       -0.03639
C         -1.53055       -1.25834       -0.07312
C         -2.77864       -1.77301       -0.00303
C         -3.62708       -0.74516        0.03786
C         -2.96888        0.46499        0.00396
C         -1.63176        0.15437       -0.07536
C         -0.49254        1.04663       -0.09411
N         -0.63743        2.40001       -0.22505
H         -1.54359        2.75364       -0.51278
H          0.18029        2.94940       -0.46407
N         -3.62546        1.35091        0.05986
H         -4.57771        1.55439        0.35665
H         -3.01129        1.98044        0.57358
H         -4.70881       -0.86423        0.08850
H         -3.04204       -2.82759        0.00463
H         -0.06779       -2.89836       -0.00909
H          2.19678        1.98698        0.49068
