27
Coordinates from ORCA-job ./opt_b97-3c_parallel
N          4.88914        1.07313       -0.00631
C          3.79104        0.76439       -0.08735
C          2.41234        0.37819       -0.14643
C          1.69694        1.54330       -0.29269
C          0.63923        0.70472       -0.13827
C          0.97135       -0.69162       -0.04793
C          2.29702       -0.99107       -0.10420
N          2.90498       -2.18799       -0.12960
H          3.89906       -2.25697        0.08900
H          2.44024       -3.00818        0.25185
C         -0.12165       -1.63809        0.05826
C         -1.42896       -1.19312       -0.00854
C         -2.74915       -1.86450        0.06920
C         -3.68645       -0.92360        0.01328
C         -3.21321        0.31071       -0.10095
C         -1.86441        0.14661       -0.16469
C         -0.76537        1.06993       -0.03355
N         -1.03908        2.39026        0.19617
H         -0.27722        3.01652        0.42969
H         -1.97691        2.64262        0.48940
N         -3.99491        1.39938       -0.16865
H         -3.65352        2.24083       -0.62893
H         -4.98657        1.30483       -0.37785
H         -4.74948       -1.15046        0.06081
H         -3.01718       -2.91363        0.16852
H          0.07916       -2.69999        0.17370
H          1.83781        2.39022        0.37549
