27
Coordinates from ORCA-job ./opt_b97-3c_parallel
N         -5.15510       -0.46426       -0.03108
C         -4.01779       -0.35187       -0.04150
C         -2.59453       -0.17506       -0.04033
C         -2.03309       -1.42218        0.07715
C         -0.88692       -0.69100        0.06150
C         -1.06017        0.72982       -0.06033
C         -2.34202        1.16909       -0.15926
H         -2.73682        1.88639        0.55766
C          0.13602        1.54692       -0.02515
N          0.04406        2.91033        0.01247
H          0.89189        3.45966       -0.07283
H         -0.83879        3.34779       -0.22666
C          1.46356        1.03039        0.15274
C          2.70927        1.54506       -0.01874
C          3.57939        0.53754       -0.06569
C          2.93580       -0.67076        0.03538
C          1.61697       -0.31496        0.15979
C          0.47450       -1.19146        0.14779
N          0.61709       -2.55008        0.22438
H         -0.20273       -3.11276        0.42181
H          1.52342       -2.92077        0.48947
N          3.59983       -1.54824       -0.05357
H          4.56643       -1.81489       -0.22947
H          3.01722       -2.09999       -0.68096
H          4.65471        0.67100       -0.17977
H          2.95862        2.60153       -0.07602
H         -2.20770       -2.19484       -0.66872
