25
Coordinates from ORCA-job ./opt_b97-3c_parallel
N         -4.94587       -0.65227        0.08396
C         -3.81508       -0.48582        0.10373
C         -2.40128       -0.26676        0.08744
C         -1.58453       -1.36449        0.15379
C         -0.41023       -0.68004        0.02310
C         -0.41666        0.74823       -0.01656
C         -1.81405        1.04108       -0.00336
N         -2.20660        2.07097       -0.07422
H         -1.84041        3.02068       -0.07946
H         -3.22184        2.14260       -0.03355
C          0.69867        1.57706        0.02790
C          1.99489        0.95087        0.05584
C          3.24532        1.48158        0.02089
C          4.09376        0.46499       -0.01779
C          3.44837       -0.69315       -0.00976
C          2.11428       -0.42179        0.03564
C          0.92099       -1.24280        0.01591
N          1.13095       -2.59237       -0.03567
H          2.06672       -2.94315        0.13489
H          0.34873       -3.21345        0.13766
H          3.90295       -1.68024       -0.03900
H          5.17570        0.56674       -0.05229
H          3.50036        2.53852        0.02557
H          0.57938        2.65740        0.04036
H         -1.78439       -2.25009       -0.44466
