27
Coordinates from ORCA-job ./opt_b97-3c_parallel
N         -2.19486       -3.93208        0.00531
C         -2.09656       -2.79329        0.01034
C         -2.01266       -1.36541        0.01085
C         -3.02761       -0.32455        0.00770
C         -2.45998        1.00476        0.00329
C         -3.05324        2.30800        0.00212
N         -3.55609        3.33432        0.00132
C         -1.05257        0.78891       -0.00066
C         -0.78466       -0.61320        0.00389
C          0.53407       -1.08047        0.00276
C          1.51879       -0.02245       -0.00441
C          2.93398       -0.26357       -0.00649
C          3.52151       -1.56775       -0.00089
N          4.02183       -2.59528        0.00525
C          3.63413        1.00586       -0.01434
C          2.53986        2.01663       -0.01773
C          1.21782        1.37142       -0.01027
C         -0.08612        1.86199       -0.00800
H         -0.25443        2.93644       -0.01215
H          2.54704        3.10443       -0.02403
N          4.66169        1.40478       -0.01698
H          5.36665        0.66958        0.01635
H          5.14746        2.28688        0.13103
H          0.73088       -2.15024        0.00699
N         -4.11416       -0.53066       -0.00709
H         -4.49328       -1.47536       -0.04036
H         -4.90774        0.10748       -0.01475
