30
Coordinates from ORCA-job ./opt_b97-3c_parallel
N         -5.41539       -0.95342       -0.12898
C         -4.29883       -0.70650       -0.13423
C         -2.90108       -0.37603       -0.10336
C         -2.32771       -1.62520       -0.13842
C         -1.19999       -0.86814       -0.08859
C         -1.38896        0.54306       -0.09056
C         -2.67721        0.98087       -0.15001
N         -3.33670        2.14851       -0.24848
H         -2.90835        2.93424       -0.73395
H         -4.33287        2.15221       -0.46103
C         -0.16664        1.31479       -0.00477
N         -0.29524        2.65116        0.26153
H          0.52836        3.18833        0.50797
H         -1.20548        3.00824        0.53277
C          1.21134        0.88104       -0.08825
C          2.33849        1.63852       -0.13704
C          2.91143        0.38901       -0.11033
C          4.30843        0.72054       -0.15357
N          5.42489        0.96789       -0.15837
C          2.68804       -0.96819       -0.15732
C          1.40011       -0.53087       -0.09455
C          0.17790       -1.30228       -0.00828
N          0.30606       -2.63815        0.26011
H          1.21638       -2.99521        0.53119
H         -0.51756       -3.17486        0.50758
N          3.34604       -2.13620       -0.25534
H          4.34098       -2.14156       -0.47308
H          2.91449       -2.92334       -0.73581
H          2.53824        2.37512        0.64013
H         -2.52528       -2.36656        0.63474
