21
Coordinates from ORCA-job ./opt_b97-3c_parallel
N         -4.77252       -1.63462        0.00440
C         -3.98343       -0.81087        0.00164
C         -2.95883        0.18165       -0.00188
C         -3.32643        1.49707       -0.00099
N         -2.16912        2.14764       -0.00085
C         -1.11284        1.25714       -0.00114
C         -1.56043       -0.10143       -0.00174
C         -0.78963       -1.26772       -0.00195
C          0.65393       -1.11405       -0.00160
N          1.71719       -1.85584       -0.00194
C          2.80075       -1.11720       -0.00176
C          2.43775        0.22266       -0.00118
C          3.22020        1.42056       -0.00046
N          4.36191        1.44633       -0.00315
C          1.01534        0.26295       -0.00122
N          0.19481        1.27753       -0.00106
N          3.71663       -1.74417       -0.00200
H          3.99334       -2.72876       -0.00241
H          4.59965       -1.22506       -0.00224
H         -1.27481       -2.24277       -0.00218
H         -4.27397        2.05938       -0.00074
