19
Coordinates from ORCA-job ./opt_b97-3c_parallel
N          3.93398        1.87021       -0.00767
C          3.16349        1.02604       -0.00411
C          2.17015        0.00088        0.00035
C          2.55961       -1.31054        0.00093
N          1.44087       -2.04621        0.00093
C          0.35019       -1.25808        0.00044
C          0.76387        0.04826        0.00006
C         -0.12099        1.11923       -0.00057
C         -1.46353        0.75360       -0.00074
C         -2.64811        1.62769       -0.00133
C         -3.67561        0.78368       -0.00134
C         -3.34125       -0.50603       -0.00082
C         -1.86313       -0.57574       -0.00036
N         -0.96330       -1.59365        0.00024
H         -4.09950       -1.28504       -0.00081
H         -4.70973        1.11961       -0.00174
H         -2.80746        2.70324       -0.00172
H          0.20784        2.15537       -0.00094
H          3.48366       -1.90749        0.00130
