22
Coordinates from ORCA-job ./opt_b97-3c_parallel
N         -4.57852       -1.47081       -0.00445
C         -3.52174       -1.03182       -0.00295
C         -2.20125       -0.45844       -0.00104
C         -1.21607       -1.51086       -0.00092
N         -0.12850       -1.32113        0.00006
C          0.82067       -0.35938        0.00172
C          0.39081        1.08626        0.00248
N         -0.92514        1.39297        0.00148
C         -1.94367        0.96377        0.00044
N         -2.94396        1.89459        0.00106
H         -3.91472        1.59846       -0.00165
H         -2.73429        2.88617        0.00008
C          1.33905        1.64803        0.00386
C          2.53223        0.84972        0.00517
N          3.81131        1.33537        0.00931
H          3.98549        2.33433        0.00621
H          4.59475        0.68957        0.00605
C          1.92232       -0.45327        0.00270
C          2.84280       -1.55087        0.00295
N          3.72858       -2.27493        0.00325
H          1.33821        2.73395        0.00448
H         -1.36264       -2.58479       -0.00180
