21
Coordinates from ORCA-job ./opt_b97-3c_parallel
N         -3.65423       -0.62836        0.00027
C         -2.75649        0.07916       -0.00163
C         -1.42467        0.61445       -0.00084
C         -1.71890        2.01617       -0.00079
N         -0.80678        2.62530       -0.00028
C          0.14810        1.68538       -0.00014
C          1.47698        2.11144       -0.00090
C          2.61079        1.31332       -0.00039
C          2.72302       -0.07272        0.00264
C          1.74846       -1.07467        0.00519
N          2.28032       -2.34111        0.01180
H          1.66711       -3.14999       -0.00721
H          3.28480       -2.47546       -0.01038
C          0.34549       -0.93644        0.00314
C         -0.45250       -2.14843        0.00400
N         -1.06904       -3.11112        0.00287
C         -0.36476        0.27956        0.00034
H          3.75474       -0.42145        0.00352
H          3.55488        1.85353       -0.00156
H          1.65896        3.18473       -0.00186
H         -2.66082        2.55582       -0.00120
