17
Coordinates from ORCA-job ./opt_b97-3c_parallel
N          3.54808        1.28850       -0.00145
C          2.79314        0.42963       -0.00092
C          1.47618       -0.12780       -0.00058
C          1.41249       -1.55755       -0.00040
N          0.49221       -2.16270       -0.00016
C         -0.29092       -1.07479        0.00003
C          0.43541        0.23873       -0.00062
C         -0.20389        1.48770       -0.00126
C         -1.62609        1.70856       -0.00051
N         -2.47448        1.00036        0.00001
C         -2.62593       -0.09458        0.00064
C         -1.68998       -1.18836        0.00045
H         -2.18088       -2.15881        0.00074
H         -3.70891       -0.13554        0.00035
H         -2.16076        2.65129       -0.00081
H          0.36603        2.41390       -0.00105
H          2.21454       -2.28685       -0.00044
