19
Coordinates from ORCA-job ./opt_b97-3c_parallel
N         -4.81658       -0.38978       -0.00304
C         -3.67345       -0.42684       -0.00171
C         -2.57980       -0.27321       -0.00029
C         -1.51010       -1.13143       -0.00067
N         -0.40057       -1.04646        0.00049
C          0.36904       -0.24251        0.00163
C          0.23676        1.20472        0.00285
N          1.47928        1.82470        0.00419
C          2.35657        0.81685        0.00383
N          3.38232        1.24230        0.00502
H          4.15414        0.57020        0.00489
H          3.83369        2.15908        0.00665
C          1.79429       -0.43115        0.00220
C          2.46002       -1.69789        0.00137
N          3.03963       -2.68143        0.00078
N         -1.01269        1.83133        0.00290
C         -2.14392        1.02416        0.00146
H         -2.72869        1.95894        0.00268
H         -1.83454       -2.18526       -0.00264
