23
Coordinates from ORCA-job ./opt_b97-3c_parallel
N         -4.86174       -0.52124       -0.01519
C         -3.72636       -0.39026       -0.00945
C         -2.29231       -0.21037       -0.00842
C         -1.60393       -1.46584       -0.08186
N         -0.56904       -1.76514        0.12461
C          0.63539       -1.19015        0.00352
C          1.62138       -1.68477       -0.00537
C          2.70397       -0.74261       -0.03835
N          3.98484       -1.22139       -0.09547
H          4.15295       -2.20470        0.08549
H          4.75138       -0.57069        0.04259
C          1.84607        0.41148       -0.00205
C          2.73800        1.53277        0.02637
N          3.08878        2.62090        0.03896
C          0.74481        0.30593        0.00837
C         -0.28532        1.26948        0.03329
C         -1.67047        1.04699        0.03494
N         -2.45346        2.17011        0.07692
H         -2.02290        3.07565       -0.07652
H         -3.45039        2.07868       -0.09005
H          0.02652        2.31307        0.05443
H          1.76237       -2.76265        0.00344
H         -2.01192       -2.46751       -0.01343
