21
Coordinates from ORCA-job ./opt_b97-3c_parallel
N          4.23414        1.70310        0.00066
C          3.40232        0.91888        0.00267
C          2.26372        0.05500        0.00070
C          2.55244       -1.34668        0.00006
N          1.76836       -2.12098       -0.00129
C          0.75871       -1.24025       -0.00138
N         -0.55193       -1.56553       -0.00232
C         -1.55488       -1.10010       -0.00050
N         -2.45473       -2.13057        0.00473
H         -3.45151       -1.93989       -0.00112
H         -2.14087       -3.09444       -0.00344
C         -1.93019        0.29771       -0.00029
C         -3.31344        0.70528       -0.00996
N         -4.40893        1.03373       -0.00704
C         -0.86666        1.27888        0.00073
N          0.23274        1.17899       -0.00223
C          1.17110        0.20927       -0.00047
N         -1.06191        2.63188        0.01864
H         -0.27461        3.27021       -0.00396
H         -2.00198        3.01347        0.00108
H          3.50958       -1.85566        0.00069
