21
Coordinates from ORCA-job ./opt_b97-3c_parallel
N          4.44867       -0.08776        0.00035
C          3.40346        0.37193       -0.00028
C          2.07334        0.89297       -0.00037
C          1.77407        2.22379       -0.00020
N          0.44654        2.18473        0.00086
C         -0.19944        0.95464        0.00119
C          0.91781        0.06558        0.00020
N          0.96085       -1.32600        0.00003
C         -0.25005       -1.98422        0.00232
N          0.16217       -3.01105        0.00188
H          1.14205       -3.30414        0.00153
H         -0.36689       -3.88463        0.00131
N         -1.63611       -1.94476        0.00444
C         -2.14994       -0.65654        0.00440
N         -3.10289       -1.24112        0.00635
H         -3.82055       -1.97036        0.00799
H         -3.63935       -0.36717        0.00543
C         -1.52321        0.57264        0.00210
C         -2.23588        1.42918       -0.00018
N         -3.24953        1.95980       -0.00134
H          2.36222        3.15491       -0.00066
