21
Coordinates from ORCA-job ./opt_b97-3c_parallel
N         -3.92922       -0.68960        0.00136
C         -2.94025       -0.11686        0.00235
C         -1.72731        0.64101        0.00193
C         -2.05137        1.98870        0.00354
N         -1.32722        3.12466        0.00266
C          0.03464        2.92598       -0.00117
N          1.06708        2.15206       -0.00501
C          0.76258        0.89663       -0.00561
C          1.76600       -0.12823       -0.01127
C          3.17945        0.11498       -0.01598
N          4.32031        0.18829       -0.00315
C          1.38798       -1.45303       -0.01310
N          2.04996       -2.62380        0.08916
H          3.05799       -2.70152       -0.03709
H          1.59320       -3.52638       -0.03612
C          0.02957       -1.24058       -0.00750
C         -0.85545       -2.36693       -0.00831
N         -1.53357       -3.28968       -0.00617
C         -0.36445        0.13644       -0.00243
H          0.48023        3.93249       -0.00185
H         -3.03463        2.48435        0.00561
