21
Coordinates from ORCA-job ./opt_b97-3c_parallel
N         -4.11323       -0.71917       -0.00161
C         -2.97028       -0.72038       -0.00199
C         -1.52670       -0.70196       -0.00277
C         -1.01891       -2.04976        0.00507
N          0.00086       -2.47535        0.00419
C          1.02025       -2.04848        0.00462
C          1.52861       -0.70114       -0.00281
C          2.97298       -0.71974       -0.00156
N          4.11553       -0.71950       -0.00087
C          0.75615        0.47875       -0.01042
C          1.06776        1.54089       -0.01693
C          0.00015        2.49035        0.02798
N          0.00318        3.85130        0.10086
H         -0.86680        4.35232       -0.04266
H          0.87575        4.34808       -0.04151
C         -1.06726        1.54028       -0.01716
C         -0.75492        0.47815       -0.01056
H         -2.10866        1.84989       -0.02142
H          2.10907        1.85114       -0.02242
H          1.57109       -2.98268        0.00458
H         -1.57106       -2.98348        0.00463
