21
Coordinates from ORCA-job ./opt_b97-3c_parallel
N          4.17836        0.52013       -0.17799
C          3.07793        0.21736       -0.11374
C          1.68629       -0.16048       -0.04730
C          1.50386       -1.59244        0.01892
N          0.58408       -2.21262        0.05162
C         -0.50552       -1.99566        0.05704
C         -1.15625       -1.09039        0.04782
C         -2.24016       -0.89136       -0.00981
N         -2.59338        0.14977       -0.11215
C         -1.72539        0.81049        0.03733
N         -2.34375        2.01166        0.25241
H         -3.35520        2.05852        0.30207
H         -1.80795        2.79793        0.60249
C         -0.71815        0.35222        0.01282
C          0.63115        0.76992       -0.04513
N          0.91214        2.11087       -0.10679
H          0.15468        2.75114       -0.32028
H          1.85737        2.39755       -0.33953
H         -3.16262       -1.45544       -0.09603
H         -0.75755       -3.04950        0.00659
H          2.25033       -2.36326        0.17393
