21
Coordinates from ORCA-job ./opt_b97-3c_parallel
N          4.75691        1.23585        0.02443
C          3.69489        0.81344        0.01985
C          2.35060        0.29713        0.01367
C          2.21171       -1.13925        0.02454
N          1.29913       -1.77044        0.02312
C          0.21399       -1.53389        0.01050
C         -0.53220       -0.70462       -0.00053
C         -0.08150        0.72554       -0.01058
C         -1.09810        1.68270       -0.02827
C         -2.04075        0.59286       -0.03042
C         -3.34904        1.17337        0.00532
N         -4.46671        1.39481        0.09671
C         -1.92750       -0.84498       -0.00924
N         -2.59442       -2.04018       -0.00450
H         -3.59816       -2.02711        0.14320
H         -2.08757       -2.88358        0.23873
H         -0.88671        2.74931       -0.03535
C          1.25782        1.17060       -0.00292
H          1.46258        2.23950       -0.01047
H          0.09386       -2.60660       -0.10061
H          2.99363       -1.89050        0.02526
