20
Coordinates from ORCA-job ./opt_b97-3c_parallel
N         -3.51747       -2.21595       -0.00131
C         -2.81015       -1.31814       -0.00202
C         -1.89305       -0.22138       -0.00284
C         -2.55384        0.99785       -0.00186
N         -2.15831        2.28565       -0.00053
C         -0.79322        2.45099       -0.00077
N          0.39389        1.95059       -0.00211
C          0.43293        0.66032       -0.00068
C          1.68675       -0.03182        0.00677
C          2.99851        0.54652        0.00911
N          4.10675        0.83276        0.00385
C          1.52021       -1.38477        0.01142
N          2.41777       -2.38519        0.04010
H          3.42460       -2.23647       -0.00888
H          2.17315       -3.37200       -0.01346
C          0.20917       -1.58107        0.00202
C         -0.45677       -0.38910       -0.00242
H         -0.26808       -2.55885        0.00753
H         -0.61511        3.53652        0.00071
H         -3.64169        1.16635       -0.00152
