25
Coordinates from ORCA-job ./opt_b97-3c_parallel
N          4.81642        0.58043        0.16536
C          3.71493        0.28075        0.10648
C          2.31953       -0.09076        0.04553
C          2.16304       -1.52276       -0.01983
N          1.25771       -2.15988        0.02090
C          0.18372       -1.89052        0.06985
C         -0.53537       -1.03989        0.05271
C         -1.92710       -1.22700        0.07650
C         -2.15202        0.19510        0.00993
C         -3.53544        0.56068        0.05759
N         -4.60068        0.97333        0.01613
C         -1.20475        1.27736       -0.07422
N         -1.19462        2.63827       -0.22396
H         -0.34887        3.06632       -0.58420
H         -2.07444        3.09302       -0.44402
C         -0.10469        0.39940        0.00311
C          1.25600        0.83299        0.04146
N          1.58740        2.16266        0.11292
H          2.54771        2.40138        0.33768
H          0.86738        2.81149        0.41095
N         -2.55652       -2.44330        0.14106
H         -3.55426       -2.45730        0.32494
H         -2.01419       -3.25925        0.40151
H          0.08741       -2.95818       -0.10252
H          2.91630       -2.27660       -0.22144
