17
Coordinates from ORCA-job ./opt_b97-3c_parallel
N          4.56505        0.84441        0.00125
C          3.44595        0.61017        0.00050
C          2.40008        0.28513        0.00036
C          1.32754        1.11813        0.00070
N         -0.04278        1.23747        0.00075
C         -0.80635        0.07366        0.00010
C         -2.16732        0.14669        0.00011
C         -3.13964        1.18972        0.00070
N         -3.85369        2.08056        0.00041
C         -2.55154       -1.22435       -0.00080
N         -1.49471       -2.11719       -0.00137
C         -0.41166       -1.32008       -0.00068
N          0.87226       -1.85752       -0.00130
C          1.94246       -0.99137       -0.00062
H          2.71751       -1.77895       -0.00112
H         -3.57216       -1.63858       -0.00105
H          1.57914        2.19473        0.00140
