20
Coordinates from ORCA-job ./opt_b97-3c_parallel
N          2.84017        2.31155        0.03181
C          2.23574        1.34103        0.02743
C          1.17378        0.38213       -0.02833
C          1.76774       -0.92620       -0.07007
N          2.91970       -1.65985       -0.14017
H          2.88067       -2.65494        0.04809
H          3.80537       -1.18178       -0.01056
C          0.53602       -1.66069       -0.01782
C         -0.38093       -1.04763       -0.01009
C         -1.72908       -1.44000        0.00345
C         -2.86844       -0.56036        0.01259
N         -2.94615        0.54172        0.01420
C         -2.25491        1.40338        0.00439
C         -0.81776        1.47632       -0.01153
C          0.06933        0.38663       -0.01763
H         -0.46321        2.50476       -0.01725
H         -2.96991        2.21741        0.03199
H         -3.92099       -0.81926        0.01774
H         -2.02081       -2.48814        0.00768
H          0.48290       -2.74581       -0.03655
