23
Coordinates from ORCA-job ./opt_b97-3c_parallel
N          4.48580       -0.21058        0.24347
C          3.34883       -0.29923        0.16405
C          1.91265       -0.41094        0.07862
C          1.46930       -1.78249       -0.01008
N          0.45532       -2.22822       -0.06923
C         -0.56707       -1.79434       -0.08761
C         -1.06061       -0.79346       -0.06242
C         -2.10698       -0.44050        0.01509
N         -2.21166        0.65822        0.05284
C         -1.24962        1.19027       -0.03831
N         -1.64864        2.48280       -0.24016
H         -0.97643        3.16274       -0.57682
H         -2.63297        2.68325       -0.37670
C         -0.35543        0.53952       -0.00289
C          1.04784        0.69894        0.07534
N          1.57395        1.96344        0.15413
H          2.55352        2.06616        0.39766
H          0.94784        2.73221        0.36787
N         -3.41646       -0.82588        0.11595
H         -3.64361       -1.80284        0.26193
H         -4.12841       -0.13393        0.32184
H         -1.03319       -2.77081       -0.16683
H          2.05985       -2.67404       -0.18858
