21
Coordinates from ORCA-job ./opt_b97-3c_parallel
N         -2.43615       -2.45135        0.00526
C         -1.72236       -1.28943        0.03439
N         -0.64218       -1.51641        0.06064
C          0.55979       -0.90366        0.05328
C          1.65104       -1.05791        0.05929
C          2.42966        0.14206        0.01904
N          3.79429        0.09591        0.01897
H          4.32642        0.95590        0.09463
H          4.27615       -0.78346        0.16859
N          1.89091        1.10088       -0.01246
C          0.64716        0.60016        0.00473
N         -0.48486        1.33534       -0.01273
C         -1.58531        1.24387       -0.00827
N         -2.17163        2.47579       -0.01340
H         -3.17228        2.56250        0.12303
H         -1.59802        3.30486        0.09431
C         -2.33674        0.01412        0.01135
H         -3.42175        0.07515        0.04519
H          2.11151       -2.04030        0.09181
H         -3.43610       -2.42751       -0.15812
H         -1.95298       -3.33583       -0.10586
