20
Coordinates from ORCA-job ./opt_b97-3c_parallel
N         -1.74890       -2.56625       -0.02543
C         -1.39854       -1.24608       -0.01146
C         -2.12720        0.00013        0.00202
C         -1.39711        1.24613        0.01491
N         -1.75035        2.56525        0.02786
H         -1.04589        3.25891        0.25522
H         -2.72227        2.79638        0.20358
C         -0.08624        0.75837        0.00985
C         -0.08710       -0.75865       -0.00689
C          0.87758       -1.35024       -0.01258
N          1.96268       -1.02878       -0.01086
C          2.44452       -0.00147       -0.00005
N          1.96398        1.02389        0.01121
C          0.88053        1.34910        0.01462
H          1.04006        2.41833       -0.05982
H          3.52565       -0.00388       -0.00198
H          1.03917       -2.41975        0.05858
H         -3.21234        0.00058        0.00210
H         -2.72026       -2.79912       -0.20114
H         -1.04404       -3.25825       -0.25268
