22
Coordinates from ORCA-job ./opt_b97-3c_parallel
N         -4.34788       -0.17502       -0.14860
C         -3.21223       -0.05654       -0.09005
C         -1.77449        0.10874       -0.02284
C         -0.99478       -1.10587        0.00695
N          0.03697       -1.44537        0.16525
C          1.15388       -0.76601       -0.13998
N          2.41897       -1.19782       -0.07680
C          2.68161       -0.10907       -0.01215
N          4.05013       -0.09304       -0.01981
H          4.55205        0.77810        0.11113
H          4.56934       -0.96293        0.01548
N          2.52407        0.99921        0.05591
C          1.22178        0.69083        0.01444
C          0.18855        1.64405        0.08502
C         -1.18975        1.38747        0.03849
N         -2.00049        2.49405        0.06363
H         -2.99182        2.38041       -0.12262
H         -1.58869        3.41111       -0.07034
H          0.49133        2.68614        0.16611
N         -1.50210       -2.37555        0.08885
H         -0.88262       -3.17826        0.05880
H         -2.49737       -2.53158       -0.02954
