19
Coordinates from ORCA-job ./opt_b97-3c_parallel
N         -3.39686       -0.07163       -0.00118
C         -2.03365       -0.12440       -0.00809
N         -1.51723       -1.09395       -0.01453
C         -0.25642       -0.63570       -0.00749
C         -0.16573        0.85105       -0.00458
C         -1.24729        1.06959       -0.00460
H         -1.70922        2.05236        0.00100
C          0.96385        1.67249       -0.00064
C          2.29123        1.25843        0.00495
C          2.81341       -0.03321        0.00847
C          2.16169       -1.26529        0.00507
C          0.80005       -1.55140       -0.00297
H          0.54185       -2.60843       -0.00545
H          2.81525       -2.13435        0.00874
H          3.89968       -0.08914        0.01465
H          3.02809        2.05842        0.00827
H          0.80078        2.74810       -0.00048
H         -3.86866        0.81119        0.15729
H         -3.92744       -0.92702        0.12030
