20
Coordinates from ORCA-job ./opt_b97-3c_parallel
N         -2.73567       -1.95570       -0.00087
C         -1.65853       -1.11756        0.02076
N         -1.96350       -0.04584        0.04968
C         -1.47102        0.95530        0.03624
N         -2.30237        2.03269       -0.03612
H         -3.30170        1.90269        0.07062
H         -1.92443        2.96703        0.07077
N         -0.43788        1.37090        0.02810
C          0.73673        0.73082       -0.18310
N          1.98976        1.16206        0.00077
C          2.23712        0.06349        0.02387
N          3.60315        0.05906        0.12118
H          4.11652       -0.81514        0.10458
H          4.12103        0.92997        0.09199
N          2.10499       -1.05478        0.03036
C          0.81152       -0.72900       -0.06948
C         -0.29192       -1.59192        0.03141
H         -0.14778       -2.66169        0.16178
H         -3.66926       -1.57449       -0.10651
H         -2.60437       -2.95264       -0.13004
