19
Coordinates from ORCA-job ./opt_b97-3c_parallel
N         -3.56133       -0.42858        0.13539
C         -2.45348       -0.43188        0.12992
N         -1.87621        0.73267        0.09671
C         -0.58136        0.69286        0.05999
C         -0.32292       -0.65723        0.10595
N          0.82222       -1.36143        0.09927
C          1.93530       -0.56114        0.03007
N          2.83876       -1.19680        0.02040
H          2.90740       -2.21512        0.01874
H          3.80580       -0.86787       -0.00656
N          2.55211        0.66007       -0.03876
C          1.74851        1.79044       -0.05441
C          0.30142        1.83973       -0.01082
H         -0.15716        2.82433       -0.03366
H          2.30968        2.73706       -0.10815
C         -1.47232       -1.38723        0.17856
H         -1.58030       -2.33276       -0.35242
H         -4.21229        0.35981        0.14880
H         -4.16001       -1.25773        0.14004
