21
Coordinates from ORCA-job ./opt_b97-3c_parallel
N         -2.38431       -1.92469       -0.03292
C         -1.32229       -1.06983        0.03480
N         -1.65751       -0.00820        0.00618
C         -1.32430        1.05490       -0.02297
N         -2.38699        1.91017        0.04665
H         -3.31706        1.55068        0.22929
H         -2.22467        2.90247        0.17531
C          0.02895        1.55458       -0.07844
C          1.15819        0.72960       -0.04023
C          2.48769        1.14188       -0.06781
C          3.28115       -0.00408       -0.00082
C          2.49054       -1.15165        0.06902
C          1.15996       -0.74267        0.04529
C          0.03319       -1.56918        0.08551
H          0.14023       -2.64957        0.14732
H          2.85862       -2.17288        0.12692
H          4.36831       -0.00302       -0.00251
H          2.85283        2.16397       -0.12649
H          0.13479        2.63429       -0.14207
H         -3.31515       -1.56428       -0.21005
H         -2.22504       -2.91783       -0.16265
