18
Coordinates from ORCA-job ./opt_b97-3c_parallel
N         -3.05591       -0.80917        0.01608
C         -1.75553       -0.39527        0.04173
N         -1.82564        0.70808        0.02838
C         -1.09935        1.54323        0.00971
C          0.33923        1.58793       -0.02395
C          1.19396        0.47499       -0.01950
N          2.52548        0.62335       -0.05126
C          2.81697       -0.43772       -0.02674
C          1.72752       -1.36252        0.01795
C          0.70843       -0.94402        0.02262
C         -0.64395       -1.31146        0.05277
H         -0.93057       -2.35996        0.08629
H          1.89991       -2.43394        0.04477
H          3.88325       -0.62931       -0.03984
H          0.73026        2.60227       -0.05326
H         -1.79903        2.36994        0.03577
H         -3.27264       -1.79012       -0.11624
H         -3.79655       -0.13119       -0.12310
