20
Coordinates from ORCA-job ./opt_b97-3c_parallel
N         -3.12005       -1.39251       -0.12039
C         -2.09118       -0.53369       -0.01947
C         -0.90979       -1.21442       -0.03009
C          0.36427       -0.55400       -0.01141
N          1.52812       -1.27035       -0.02092
C          2.51436       -0.30232        0.00106
N          1.90596        0.85123        0.02591
C          0.61207        0.79047        0.01483
C         -0.32925        1.87724        0.02253
C         -1.69239        1.80322        0.00101
C         -2.55451        0.74875       -0.03723
H         -3.62226        0.95572       -0.07294
H         -2.18721        2.77242        0.00316
H          0.10342        2.87362        0.04439
N          3.59197       -0.53421       -0.00685
H          4.36074        0.13191       -0.07131
H          4.00432       -1.46135       -0.10307
H         -0.88503       -2.30249       -0.05276
H         -4.06680       -1.09487        0.11456
H         -3.02087       -2.36675        0.16082
