24
Coordinates from ORCA-job ./opt_b97-3c_parallel
N         -3.68786       -0.39551        0.01047
C         -2.35641       -0.08075        0.00279
C         -2.06848        1.28236       -0.01211
C         -0.83820        1.92193       -0.03399
C          0.42347        1.32407       -0.03125
C          1.52966        2.17426       -0.05225
C          2.57386        1.18072       -0.03452
C          2.19587       -0.20827        0.04127
N          2.98210       -1.32165        0.15788
H          2.55898       -2.15733        0.54606
H          3.97475       -1.18753        0.31468
C          0.79152       -0.10785        0.00563
C         -0.08179       -1.22238        0.00144
N          0.40760       -2.50149       -0.02858
H          1.37325       -2.62592       -0.31066
H         -0.23800       -3.25317       -0.24198
C         -1.47890       -1.16747        0.00028
H         -1.97267       -2.13933       -0.00194
H          3.61818        1.47316       -0.07824
H          1.43176        3.25716       -0.07544
H         -0.88158        3.00904       -0.05302
H         -2.92584        1.95316       -0.01348
H         -4.36363        0.33990        0.18659
H         -3.96332       -1.35352        0.19381
