22
Coordinates from ORCA-job ./opt_b97-3c_parallel
N         -3.69476       -0.35072       -0.07595
C         -2.37740       -0.00007       -0.04130
N         -1.82578       -0.96206       -0.01742
C         -0.74305       -1.21692       -0.00187
C          0.25201       -0.71335        0.00109
C          1.33658       -0.93150       -0.00435
N          2.02447       -0.06796        0.00140
C          1.55661        0.93125        0.00784
N          2.48619        1.93169        0.04476
H          3.46284        1.70402        0.19122
H          2.18835        2.88854        0.19823
C          0.46367        0.77820       -0.00787
C         -0.57748        1.73026       -0.03017
C         -1.92852        1.37176       -0.04660
H         -2.68956        2.14810       -0.06455
H         -0.33247        2.78919       -0.03604
N          2.18496       -2.00490       -0.02531
H          1.81441       -2.93692       -0.17304
H          3.17841       -1.85715       -0.16237
H         -0.92327       -2.28333        0.06850
H         -3.96052       -1.32132        0.04523
H         -4.41139        0.35962        0.01869
