23
Coordinates from ORCA-job ./opt_b97-3c_parallel
N          2.86878        1.48933        0.13412
C          1.85771        0.57374        0.01865
C          2.23435       -0.76624       -0.11520
C          1.30087       -1.84619       -0.30750
N          0.19100       -1.82358       -0.24835
C         -0.58938       -1.05200       -0.06296
N         -1.38448       -2.04257        0.45863
H         -2.32079       -1.81185        0.77140
H         -1.16586       -3.01907        0.29208
C         -0.68903        0.06413       -0.07684
C         -1.85728        0.83491       -0.16957
C         -1.28827        2.15755       -0.05201
C          0.14255        2.32238        0.05191
C          0.49699        0.97133        0.00999
H          0.86823        3.13003        0.09864
H         -1.93600        3.02796       -0.03116
N         -3.12503        0.33932       -0.31075
H         -3.87308        0.98223       -0.54506
H         -3.23122       -0.63282       -0.57982
H          1.48529       -2.91258       -0.26254
H          3.28226       -1.05703       -0.11054
H          3.81146        1.15792        0.30559
H          2.63878        2.43926        0.40237
