22
Coordinates from ORCA-job ./opt_b97-3c_parallel
N         -2.42974       -2.68867        0.12984
C         -2.07555       -1.60145        0.12727
C         -1.23735       -0.44247        0.04007
C         -2.13730        0.67920       -0.00701
N         -3.43837        1.09794       -0.07209
H         -4.17373        0.41242        0.06669
H         -3.65173        2.07195        0.11056
C         -1.09644        1.66720        0.02727
C         -0.09427        1.20699        0.02032
N          1.08788        1.83135       -0.07246
C          2.14747        1.58725        0.06644
C          2.87317        0.35287        0.04216
C          2.30094       -0.91952        0.02899
N          3.15889       -1.98362        0.02206
H          2.78753       -2.91101       -0.15164
H          4.14382       -1.81924       -0.15414
C          0.93022       -1.21091        0.02895
C         -0.14116       -0.29233        0.03240
H          0.66795       -2.26687        0.02815
H          3.95364        0.48033        0.04165
H          2.53562        2.59733        0.01112
H         -1.28195        2.73811        0.01032
