21
Coordinates from ORCA-job ./opt_b97-3c_parallel
N         -2.68880       -1.06510        0.36173
C         -1.85793        0.00497        0.17177
C         -2.03030        1.43016       -0.00258
C         -0.89139        2.30873       -0.14692
C          0.08355        1.31633       -0.07884
C          1.44325        1.68699       -0.11667
C          2.48018        0.76329        0.02800
C          2.25452       -0.64081        0.26181
N          1.29315       -1.19972        0.24337
C          0.21858       -0.95655        0.07897
N          0.03463       -2.22870       -0.40400
H          0.73481       -2.94538       -0.24700
H         -0.89352       -2.52158       -0.68730
C         -0.46190       -0.06620        0.06700
H          2.97668       -1.44865        0.26572
H          3.51488        1.09552        0.00091
H          1.71199        2.73317       -0.24435
H         -0.63560        3.36161       -0.23895
H         -3.03164        1.84661       -0.03794
H         -3.66096       -0.88900        0.58947
H         -2.27902       -1.94094        0.66786
