21
Coordinates from ORCA-job ./opt_b97-3c_parallel
N         -2.68574       -2.54544        0.04731
C         -1.86736       -1.74634        0.05746
C         -1.17224       -0.49428        0.04244
C         -2.02636        0.66266        0.00675
N         -3.36192        0.95270       -0.05432
H         -3.67294        1.90704        0.08957
H         -4.03016        0.19988        0.07669
C         -1.02672        1.69273        0.02491
C         -0.00698        1.27583        0.02962
N          1.20459        1.86949        0.02271
C          2.29648        1.69223        0.01631
C          2.84597        0.36021        0.02073
C          2.13957       -0.89460        0.02619
N          2.77297       -2.10207        0.01181
H          3.77608       -2.14677       -0.12652
H          2.23275       -2.95184       -0.10617
N          1.03758       -0.95775        0.03694
C         -0.09994       -0.22953        0.03799
H          3.93005        0.44027        0.03600
H          2.82329        2.63837       -0.00486
H         -1.25235        2.75533        0.02074
