20
Coordinates from ORCA-job ./opt_b97-3c_parallel
N         -2.72794       -1.62521        0.01905
C         -1.93890       -0.51314        0.03692
N         -0.91956       -0.91936        0.04820
C          0.34265       -0.46631        0.03344
N          1.43958       -1.23687        0.04189
C          2.19363       -0.43601        0.02159
N          3.53622       -0.68278        0.01907
H          3.87076       -1.63060        0.15511
H          4.19422        0.08059        0.13228
C          1.69699        0.90538       -0.00224
C          0.59909        1.01049        0.00471
C         -0.32056        2.07584       -0.00288
C         -1.71630        1.98210        0.01513
C         -2.47788        0.81468        0.03740
H         -3.56275        0.88218        0.05321
H         -2.26724        2.91912        0.01199
H          0.08727        3.08390       -0.02157
H          2.36862        1.75845       -0.02401
H         -3.72976       -1.53395       -0.10979
H         -2.30960       -2.54219       -0.08983
