22
Coordinates from ORCA-job ./opt_b97-3c_parallel
N          3.18785        1.50664        0.04223
C          2.11789        0.65515        0.03531
C          0.86200        1.26114        0.03218
C         -0.38582        0.62510        0.01568
C         -1.36006        1.14844        0.01322
C         -2.49790        0.27946       -0.00148
N         -3.83570        0.54920        0.00191
H         -4.14210        1.49499        0.20143
H         -4.48644       -0.21059        0.16778
C         -1.78732       -0.96329       -0.02750
C         -0.68936       -0.83445       -0.00843
C          0.21098       -1.90522       -0.00538
C          1.59863       -1.82499        0.01712
C          2.42918       -0.70640        0.03350
H          3.49113       -0.94532        0.04546
H          2.11503       -2.78193        0.01849
H         -0.19682       -2.91462       -0.02205
H         -2.29775       -1.92201       -0.06554
H         -1.45773        2.23068        0.01966
H          0.85938        2.35079        0.04446
H          4.11021        1.12746       -0.14180
H          3.02903        2.48720       -0.16089
