23
Coordinates from ORCA-job ./opt_b97-3c_parallel
N         -3.22354       -0.77968       -0.23356
C         -2.03969       -0.10535       -0.14719
N         -1.19961       -0.83505       -0.16319
C         -0.08987       -0.80429       -0.05099
N         -0.11233       -2.10871        0.37619
H         -0.94081       -2.67844        0.24437
H          0.76146       -2.57570        0.58987
C          0.75152       -0.06280       -0.05234
C          0.48153        1.40074        0.08064
C          1.62799        2.19089        0.12556
C          2.58308        1.11476       -0.00760
C          2.13650       -0.25005       -0.16626
N          2.76482       -1.45223       -0.34920
H          3.75534       -1.45091       -0.56582
H          2.21017       -2.24047       -0.66396
H          3.64552        1.33365        0.02597
H          1.57856        3.27405        0.20814
C         -0.77924        2.02864        0.12814
C         -1.98013        1.32448        0.02468
H         -2.92325        1.86431        0.05993
H         -0.83708        3.10937        0.23090
H         -4.09395       -0.28891       -0.06352
H         -3.22701       -1.79093       -0.16677
