25
Coordinates from ORCA-job ./opt_b97-3c_parallel
N         -2.97476       -0.65314        0.13930
C         -1.62769       -0.89789        0.07917
C         -1.26284       -2.24260        0.09681
C         -0.00318       -2.82715        0.00583
C          1.26102       -2.25151       -0.08731
C          1.63475       -0.90990       -0.07388
N          2.98298       -0.67403       -0.13587
H          3.59844       -1.44059       -0.38381
H          3.29451        0.26901       -0.34125
C          0.75657        0.18411        0.00681
C          0.88909        1.28068        0.08197
N          0.01177        1.94303       -0.00128
C         -0.87054        1.28678       -0.08226
N         -1.83264        2.18343       -0.46305
H         -1.69535        3.17446       -0.29745
H         -2.77190        1.85525       -0.65795
C         -0.74241        0.18899       -0.00384
N          1.85559        2.17581        0.45778
H          2.79283        1.84481        0.65704
H          1.71770        3.16704        0.29767
H          2.07573       -2.97032       -0.15382
H         -0.00697       -3.91495        0.00708
H         -2.08284       -2.95522        0.16521
H         -3.59504       -1.41425        0.39035
H         -3.27920        0.29301        0.34022
