18
Coordinates from ORCA-job ./opt_b97-3c_parallel
N          0.59794        2.67004       -0.08634
C          0.64595        1.30418       -0.04303
C          1.90439        0.69026       -0.02236
C          2.10479       -0.73904        0.01904
N          1.37526       -1.57506        0.03495
C          0.26639       -1.64824        0.03261
C         -0.60235       -0.95002        0.01675
C         -1.70648       -0.96358        0.01573
N         -2.39103       -0.10005        0.01244
C         -1.64423        0.70848       -0.02778
C         -0.55050        0.55507       -0.02271
H         -2.14358        1.67103       -0.01297
H         -2.39869       -1.79939        0.00606
H          0.24550       -2.73200        0.00224
H          3.03856       -1.28867        0.00392
H          2.81540        1.28388       -0.03801
H          1.44996        3.19720        0.06949
H         -0.29033        3.13451        0.06628
