17
Coordinates from ORCA-job ./opt_b97-3c_parallel
N          3.03795        0.00181       -0.00492
C          1.93505        0.00270       -0.00389
N          1.60095       -1.33656       -0.00587
C          0.23056       -1.51100       -0.00428
C         -0.94888       -0.82469       -0.00143
C         -0.77313        0.64965        0.00018
C         -2.13610        1.10060        0.00312
N         -2.34419        0.02033        0.00131
C         -2.28665       -1.07866       -0.00036
H         -2.84736       -2.02581        0.00205
H         -2.83134        1.95444        0.00192
C          0.27231        1.64448        0.00114
N          1.62955        1.35151       -0.00094
H          0.03950        2.72018        0.00339
H         -0.00014       -2.58713       -0.00577
H          3.65410        0.81417       -0.00539
H          3.64455       -0.81628       -0.00501
