23
Coordinates from ORCA-job ./opt_b97-3c_parallel
N         -2.71182       -0.87013       -0.27787
C         -1.36467       -0.75328       -0.03240
N         -1.02529       -1.83020       -0.01449
C          0.00304       -2.30753        0.00427
N          1.03113       -1.82385        0.02114
C          1.36419       -0.74384        0.03839
N          2.71092       -0.86963        0.25884
H          3.27173       -0.04134        0.42267
H          3.14062       -1.78181        0.36342
C          0.76476        0.22168       -0.01041
C          0.88730        1.32098       -0.10680
N         -0.00071        1.96798       -0.00023
C         -0.88602        1.31782        0.10849
N         -1.95089        2.10814        0.45208
H         -1.91679        3.11172        0.31238
H         -2.83289        1.68365        0.72262
C         -0.77146        0.21612        0.01522
N          1.95483        2.10957       -0.44745
H          2.83461        1.68331       -0.72131
H          1.91926        3.11398       -0.31451
H          0.00130       -3.38687       -0.00346
H         -3.27117       -0.03991       -0.42456
H         -3.14977       -1.78136       -0.36352
