17
Coordinates from ORCA-job ./opt_b97-3c_parallel
N         -2.57787       -1.03138       -0.00190
C         -1.67878       -0.40010       -0.00076
N         -0.65673       -1.32704       -0.00072
C          0.61585       -0.77534        0.00035
N          1.69392       -1.62350        0.00054
C          2.78216       -0.79240        0.00172
C          2.32843        0.56299        0.00160
C          0.88968        0.64279        0.00126
C          0.18788        1.94965        0.00143
C         -1.16680        1.80921        0.00072
N         -2.18765        0.88058       -0.00034
H         -1.70732        2.76712        0.00054
H          0.64394        2.93636        0.00186
H          3.02341        1.39610        0.00253
H          3.79105       -1.22997        0.00146
H         -3.55564       -0.75136       -0.00054
H         -2.55254       -2.04890       -0.00049
