17
Coordinates from ORCA-job ./opt_b97-3c_parallel
N         -1.92714       -1.96600        0.00455
C         -1.46005       -0.96792        0.00376
N         -0.20973       -1.54327        0.00286
C          0.91866       -0.72662        0.00143
N          2.21715       -1.17138        0.00049
C          3.05800       -0.07190       -0.00088
N          2.28560        1.07824       -0.00073
C          0.95925        0.71425        0.00039
N         -0.12856        1.59025        0.00070
C         -1.41289        1.07851        0.00249
N         -2.03897        1.99377        0.00271
H         -1.87247        3.00183        0.00402
H         -3.05683        1.89950        0.00234
N         -2.22598        0.07297        0.00407
H          4.15683       -0.15573       -0.00166
H         -2.94113       -2.08044        0.00763
H         -1.55140       -2.91575        0.00296
