16
Coordinates from ORCA-job ./opt_b97-3c_parallel
N          3.35646        0.01055       -0.01269
C          2.25983        0.06879       -0.00962
N          1.52042       -1.09670       -0.00764
C          0.19076       -0.74954       -0.00395
N         -0.90174       -1.61082       -0.00106
C         -2.16139       -1.05501        0.00274
N         -3.02185        0.01476        0.00556
C         -2.28387        1.17217        0.00358
C         -0.96794        1.51815       -0.00040
C          0.11895        0.68749       -0.00360
N          1.41118        1.15842       -0.00720
H         -0.75954        2.58551       -0.00106
H         -3.05811        1.95377        0.00598
H         -2.71301       -2.00708        0.00399
H          3.88582       -0.85811       -0.01525
H          4.02611        0.77667       -0.01529
