15
Coordinates from ORCA-job ./opt_b97-3c_parallel
C          2.39787        0.06737       -0.00193
N          1.82954        1.28990       -0.00013
C          0.51556        1.51998        0.00161
C         -0.53520        0.67295        0.00023
C         -0.54622       -0.65886        0.00139
C         -1.87209       -1.12940        0.00047
N         -2.58903        0.05692       -0.00142
C         -1.78696        1.12339       -0.00149
H         -2.30762        2.09281       -0.00276
H         -2.32530       -2.13183        0.00046
C          0.53252       -1.59780        0.00176
N          1.87663       -1.23012       -0.00079
H          0.42029       -2.69189        0.00259
H          0.44911        2.61854        0.00405
H          3.49620        0.00398       -0.00352
