19
Coordinates from ORCA-job ./opt_b97-3c_parallel
N          2.88379        2.22663       -0.02457
C          2.20881        1.30590       -0.08345
C          1.15144        0.34312       -0.00995
C          1.69553       -0.98707        0.03390
N          2.86506       -1.69175        0.10996
H          3.73998       -1.19288       -0.01695
H          2.85211       -2.68947       -0.06976
C          0.43447       -1.66998       -0.02577
C         -0.42250       -0.97760       -0.01880
N         -1.75347       -1.21360       -0.02112
C         -2.67782       -0.59503       -0.01186
N         -2.83979        0.50538       -0.00209
C         -2.27534        1.46279        0.00697
C         -0.83364        1.54720        0.00530
C          0.05232        0.45229       -0.00655
H         -0.47138        2.57231        0.01316
H         -2.99939        2.26873        0.00352
H         -3.59071       -1.17140        0.00198
H          0.33054       -2.75118       -0.00894
