23
Coordinates from ORCA-job ./opt_b97-3c_parallel
N          0.71633        3.34829       -0.01637
C          0.82127        2.20987       -0.02515
C          0.97432        0.76469       -0.02732
C         -0.20932       -0.01408       -0.01227
C         -0.34306       -1.51266       -0.00266
N         -1.60048       -1.97805        0.00617
C         -2.09281       -1.00490        0.00719
N         -3.46273       -1.06568        0.02045
H         -4.01551       -0.21578       -0.02077
H         -3.93849       -1.96038       -0.01148
C         -1.30918        0.19994       -0.00257
C         -2.11937        1.38804        0.00308
N         -2.75926        2.33416       -0.05105
C          0.67289       -2.47032        0.00189
C          2.03984       -2.24879       -0.01081
C          2.74198       -1.05157       -0.03240
C          2.29816        0.27251       -0.04079
N          3.33628        1.17356       -0.06652
H          4.28096        0.84681        0.10338
H          3.13656        2.15977        0.06798
H          3.82286       -1.18655       -0.04432
H          2.65423       -3.14639       -0.00600
H          0.37273       -3.51681        0.01494
