24
Coordinates from ORCA-job ./opt_b97-3c_parallel
N          3.52661        1.95711        0.06068
C          2.63396        1.24471        0.02136
C          1.49233        0.33890       -0.01092
C          1.79682       -1.04369       -0.07833
N          3.11906       -1.41964       -0.13922
H          3.83884       -0.71658       -0.00508
H          3.36657       -2.39499       -0.01865
C          0.94098       -2.15112       -0.08415
C         -0.44340       -2.22790       -0.03582
C         -1.32940       -1.15401       -0.00418
C         -2.42730       -1.24045        0.04518
N         -2.85594       -0.24154        0.23057
C         -2.10429        0.51749       -0.03470
N         -2.86013        1.59347       -0.41758
H         -2.40254        2.45571       -0.69218
H         -3.85085        1.61921       -0.20597
C         -1.01866        0.29990       -0.01801
C          0.22067        0.95527        0.01991
N          0.14246        2.32833        0.08689
H         -0.75007        2.74392        0.33077
H          0.98341        2.85029        0.30972
H         -3.17683       -2.01504        0.16175
H         -0.86296       -3.23278       -0.02895
H          1.42574       -3.12578       -0.12361
