20
Coordinates from ORCA-job ./opt_b97-3c_parallel
N         -2.06382       -2.70023       -0.01200
C         -1.46552       -1.72551       -0.01939
C         -0.72379       -0.47395       -0.02163
C          0.68696       -0.56291       -0.00436
N          1.31449       -1.75286        0.00702
C          2.38394       -1.49864        0.01018
C          2.58641       -0.08454        0.00963
C          1.68003        0.54525        0.00390
C          1.48930        1.92410        0.00767
C          0.26803        2.57841       -0.00475
C         -1.01773        2.04708       -0.02673
C         -1.47337        0.72365       -0.03622
N         -2.84508        0.63726       -0.06439
H         -3.39683        1.46827        0.11624
H         -3.28277       -0.26930        0.06595
H         -1.79511        2.80976       -0.03913
H          0.32283        3.66469       -0.00020
H          2.37399        2.55755        0.02003
H          3.59032        0.33021        0.01186
H          3.11225       -2.30093        0.01329
