20
Coordinates from ORCA-job ./opt_b97-3c_parallel
N         -2.27814       -2.67439        0.04738
C         -1.67204       -1.70576        0.04707
C         -0.88660       -0.48736        0.03748
C          0.50736       -0.65918        0.01763
C          1.60088        0.35567       -0.00175
N          2.83333       -0.16960       -0.01681
C          2.69323       -1.25757       -0.01172
C          1.27959       -1.45534        0.00832
H          0.89219       -2.47037        0.01659
H          3.49268       -1.98769       -0.02099
C          1.47494        1.74528       -0.00803
C          0.29670        2.47573        0.00715
C         -1.02448        2.03676        0.03140
C         -1.56580        0.74766        0.04526
N         -2.93864        0.73553        0.06934
H         -3.42116       -0.14717       -0.06632
H         -3.44170        1.59185       -0.13347
H         -1.74828        2.84979        0.04247
H          0.42431        3.55570        0.00016
H          2.39306        2.33122       -0.02563
