21
Coordinates from ORCA-job ./opt_b97-3c_parallel
N          3.18473        1.69860       -0.01140
C          2.18021        1.15129       -0.00484
C          0.89970        0.47656        0.00193
C          0.81889       -0.93272        0.00052
N          1.90622       -1.72196        0.00137
C          1.41939       -2.70867        0.00243
C         -0.01000       -2.69253       -0.00239
C         -0.47479       -1.69355       -0.00678
C         -1.74998       -1.11324       -0.01886
C         -2.03080        0.29861       -0.02322
N         -3.30511        0.78864       -0.03075
H         -4.09074        0.15792        0.08423
H         -3.46489        1.78112        0.09964
N         -1.35695        1.17694       -0.01807
C         -0.26178        1.34443        0.00066
N         -0.22868        2.71265        0.07171
H          0.65896        3.19757       -0.00772
H         -1.07924        3.24585       -0.06821
H         -2.64057       -1.73764       -0.02630
H         -0.58219       -3.61524       -0.00211
H          2.09934       -3.55234        0.00678
