26
Coordinates from ORCA-job ./opt_b97-3c_parallel
N          4.81524        0.08008        0.14998
C          3.67138        0.05978        0.12908
C          2.22226        0.04199        0.08537
C          1.64109       -1.27572        0.08821
N          0.68071       -1.68299        0.42230
C         -0.53728       -1.27447        0.03591
C         -1.30057       -2.06815       -0.05004
C         -2.55050       -1.37887        0.09945
N         -3.60354       -2.23094        0.30122
H         -4.54483       -1.85847        0.22792
H         -3.47079       -3.22212        0.13325
C         -1.91541       -0.09729       -0.06745
C         -3.09462        0.64736       -0.40346
N         -3.93344        1.42077       -0.32821
C         -0.84583        0.19459       -0.00126
C          0.04612        1.29421        0.06120
C         -0.57445        2.60442        0.06681
N         -1.05200        3.64299        0.06721
C          1.46274        1.22799        0.09470
N          2.16580        2.41304        0.13220
H          3.17031        2.39692       -0.01216
H          1.67120        3.28623       -0.01919
H         -1.22120       -3.13593       -0.24416
N          2.29240       -2.44004       -0.21926
H          3.30100       -2.42535       -0.32914
H          1.86360       -3.32602        0.02417
