21
Coordinates from ORCA-job ./opt_b97-3c_parallel
N         -2.62769       -2.58515        0.04448
C         -1.81229       -1.78364        0.03410
C         -1.17398       -0.50197        0.02272
C         -1.78862        0.79319        0.00061
N         -1.28632        1.77086       -0.00820
C         -0.06377        1.21830        0.00580
C         -0.08921       -0.28283        0.02650
N          1.06656       -0.96521        0.03148
C          2.14776       -0.79622        0.02603
N          2.69489       -2.04514        0.01347
H          2.10058       -2.85894       -0.09693
H          3.69499       -2.16021       -0.10558
C          2.93625        0.39874        0.02937
C          2.41502        1.69110        0.01577
C          1.06567        2.06254        0.00264
H          0.87963        3.13491       -0.01034
H          3.13990        2.50183        0.01484
H          4.01413        0.25497        0.04023
N         -3.14789        0.95389       -0.01484
H         -3.55573        1.88136        0.01534
H         -3.76164        0.14762        0.03669
