21
Coordinates from ORCA-job ./opt_b97-3c_parallel
N          4.41877        0.00773        0.05168
C          3.27690        0.00461       -0.00905
C          1.83593        0.00241       -0.07065
C          1.05100        1.21859       -0.05399
N         -0.02742        1.45366        0.00639
C         -1.15458        0.74053        0.22047
N         -2.42046        1.10699       -0.01287
C         -2.63431        0.00482       -0.02713
N         -4.00132        0.00686       -0.10121
H         -4.51151        0.87760       -0.00351
H         -4.51369       -0.86335       -0.01060
N         -2.42166       -1.09766       -0.02325
C         -1.15537       -0.73484        0.21354
N         -0.02895       -1.44723       -0.00716
C          1.05091       -1.21351       -0.04265
N          1.58022       -2.47172        0.03668
H          0.97721       -3.28412       -0.03245
H          2.58279       -2.60677       -0.03931
N          1.57894        2.47839       -0.11388
H          2.58291        2.60931       -0.05017
H          0.98013        3.28666        0.01458
