23
Coordinates from ORCA-job ./opt_b97-3c_parallel
N          4.76374        0.84300       -0.00172
C          3.67282        0.51154       -0.00262
C          2.28715        0.15570       -0.00322
C          1.43101        1.24360       -0.00167
N          0.09220        1.40020       -0.00083
C         -0.83663        0.35025       -0.00179
C         -0.54680       -1.04161       -0.00398
N          0.63278       -1.68685       -0.00494
C          1.89664       -1.22876       -0.00437
N          2.27270       -2.26592       -0.00534
H          2.24087       -3.28661       -0.00571
H          3.26695       -2.03136       -0.00390
N         -1.75453       -1.69773       -0.00491
C         -2.74774       -0.72275       -0.00347
N         -3.68131       -1.33298       -0.00580
H         -4.05717       -2.28644       -0.00775
H         -4.52016       -0.74245       -0.00600
C         -2.19451        0.54687       -0.00019
C         -2.79791        1.47412        0.01399
N         -3.71536        2.15262       -0.00947
N          1.44710        2.35825       -0.00018
H          2.45978        2.52292        0.00029
H          1.06113        3.30766        0.00066
