17
Coordinates from ORCA-job ./opt_b97-3c_parallel
N          3.09946        1.98564        0.15616
C          2.09126        1.45438        0.06854
C          1.13824        0.38658        0.01816
C          0.04031        0.52268        0.00140
N         -0.92881        1.47666       -0.00677
C         -2.04455        1.42586       -0.00967
N         -2.71161        0.52502        0.00348
C         -2.62342       -0.59287        0.01436
N         -1.70748       -1.23217        0.00808
C         -0.38286       -0.93342       -0.00664
N          0.61218       -1.83144       -0.04774
C          1.36451       -1.02946       -0.01362
N          2.62581       -1.55927        0.00064
H          3.43904       -0.95239       -0.01022
H          2.76195       -2.56067       -0.08335
H         -3.54572       -1.11909        0.20930
H         -2.48222        2.38932       -0.22423
