22
Coordinates from ORCA-job ./opt_b97-3c_parallel
N         -0.83966       -3.35341        0.00128
C         -0.84985       -2.21037        0.00070
C         -0.84749       -0.76430        0.00035
C         -2.16266       -0.15695       -0.00028
N         -2.56385        0.87220        0.00014
C         -2.09479        1.87313        0.00048
C         -0.72302        2.30304       -0.00027
C          0.41111        1.47545       -0.00032
N          1.63369        2.02666       -0.00130
C          2.12411        1.04650        0.00047
N          3.48604        1.17980        0.00245
H          4.08399        0.36019       -0.00599
H          3.91348        2.09886       -0.00783
C          1.45687       -0.22397        0.00145
C          2.22788       -1.43243        0.00476
N          2.88517       -2.36740       -0.00544
C          0.36087       -0.03404        0.00054
H         -0.63561        3.38740       -0.00088
H         -2.99228        2.48121        0.00116
N         -3.35454       -0.83171        0.00738
H         -4.23513       -0.32861        0.00237
H         -3.37068       -1.84618        0.00419
