17
Coordinates from ORCA-job ./opt_b97-3c_parallel
N         -2.24014       -2.65491       -0.04490
C         -1.56370       -1.73229       -0.02700
C         -0.72482       -0.55907        0.00384
C          0.67861       -0.68104        0.02703
N          1.41363       -1.79924       -0.00298
C          2.24392       -1.03823       -0.00764
N          2.84604       -0.08583       -0.01717
C          1.62144        0.43865        0.06756
N          1.20185        1.72125       -0.03085
C          0.16809        2.13483       -0.01731
N         -0.87390        1.73499       -0.00963
C         -1.37565        0.74095        0.00689
N         -2.72996        0.93761        0.02342
H         -3.11770        1.87396       -0.00210
H         -3.36313        0.14479        0.00547
H          0.34183        3.20039       -0.00803
H          2.98765       -1.82458       -0.00156
