26
Coordinates from ORCA-job ./opt_b97-3c_parallel
N         -2.21395       -3.44456       -0.08130
C         -1.87201       -2.35425       -0.06562
C         -1.19808       -1.08315       -0.03583
C         -2.14562        0.00250        0.00057
N         -3.51900        0.00092        0.01841
H         -4.02585        0.87844       -0.02688
H         -4.02417       -0.87425       -0.07028
C         -1.19767        1.08768        0.02626
C         -1.87214        2.35880        0.03913
N         -2.21950        3.44815        0.04808
C         -0.14044        0.74751        0.02038
C         -0.14016       -0.74591       -0.02225
C          0.96613       -1.61031       -0.03652
C          2.31623       -1.26737       -0.01658
N          3.19201       -2.31785       -0.02468
H          2.83506       -3.25154        0.14622
H          4.16776       -2.13749        0.18510
C          2.89850        0.00041        0.00783
C          2.31621        1.26825        0.02915
N          3.19204        2.31862        0.04113
H          2.83567        3.25200       -0.13264
H          4.16828        2.13793       -0.16616
C          0.96614        1.61153        0.04175
H          0.76382        2.68182        0.06989
H          3.98831        0.00040        0.01075
H          0.76320       -2.68048       -0.06559
