26
Coordinates from ORCA-job ./opt_b97-3c_parallel
N         -3.84120       -2.59184       -0.00586
C         -3.20890       -1.63950       -0.00616
C         -2.20111       -0.61672       -0.00511
C         -2.59216        0.76508       -0.00651
N         -1.85116        1.57149       -0.00561
C         -0.73650        0.81377       -0.00312
C         -1.08764       -0.62926       -0.00302
C         -0.23839       -1.73575       -0.00048
C          1.15323       -1.75320        0.00198
N          1.65051       -3.03666        0.00480
H          1.02313       -3.83326       -0.00242
H          2.65381       -3.19259        0.00056
C          2.06163       -0.66746        0.00243
C          3.47170       -1.05402        0.00337
N          4.57432       -1.35689        0.01498
C          1.79531        0.72971        0.00174
N          2.91036        1.55175        0.00396
H          3.84276        1.15037        0.00081
H          2.80453        2.56103       -0.00148
C          0.54714        1.40401       -0.00071
C          0.57337        2.86169       -0.00094
N          0.61466        4.00451       -0.00119
H         -0.72146       -2.71298       -0.00058
N         -3.89565        1.18496       -0.00890
H         -4.65728        0.51458       -0.00888
H         -4.11759        2.17481       -0.00902
