25
Coordinates from ORCA-job ./opt_b97-3c_parallel
N          0.98659        3.82073        0.01310
C          0.61400        2.73961        0.02145
C          0.15712        1.36397        0.02401
C          1.18416        0.38814       -0.02730
C          1.09752       -1.11212       -0.00106
N         -0.08588       -1.70550        0.21085
C         -1.11318       -1.37835        0.02549
N         -1.64100       -2.62710       -0.16653
H         -1.06839       -3.44514        0.00877
H         -2.64845       -2.74638       -0.15694
C         -1.85097       -0.14317        0.05980
C         -3.29188       -0.29715        0.11153
N         -4.42942       -0.40812        0.14274
C         -1.24004        1.12497        0.06701
N         -2.08063        2.21698        0.11416
H         -3.07675        2.07936       -0.02304
H         -1.69620        3.14289       -0.04307
C          1.92228       -1.84769       -0.02926
C          3.04147       -0.95534        0.02522
N          4.40504       -0.93284        0.09594
H          4.91610       -1.79860       -0.03809
H          4.88975       -0.05950       -0.08067
C          2.28412        0.25626       -0.08236
H          2.76584        1.21382       -0.25654
H          2.03614       -2.92734       -0.09553
