24
Coordinates from ORCA-job ./opt_b97-3c_parallel
N         -3.38487       -2.14343       -0.09712
C         -2.66645       -1.25520       -0.05762
C         -1.62352       -0.27234       -0.01662
C         -1.91733        1.13189        0.02381
N         -1.16018        1.92601        0.05350
C         -0.11871        1.08006        0.03021
C         -0.51572       -0.35635       -0.01031
C          0.30449       -1.49138       -0.02761
C          1.69682       -1.52984       -0.01782
N          2.25161       -2.78003       -0.03154
H          3.24157       -2.87669        0.16648
H          1.65316       -3.58220        0.13285
C          2.60057       -0.46510        0.00022
C          2.38361        0.91481        0.02215
N          3.51180        1.68885        0.03014
H          3.42260        2.68474       -0.13937
H          4.40525        1.25061       -0.16543
C          1.17541        1.61070        0.04108
H          1.25042        2.69713        0.06742
H          3.64959       -0.76022       -0.00351
H         -0.19592       -2.45865       -0.05100
N         -3.19572        1.62079        0.03020
H         -3.35899        2.61874       -0.04160
H         -3.98103        0.99185       -0.09966
