22
Coordinates from ORCA-job ./opt_b97-3c_parallel
N         -3.34564       -2.21783        0.01976
C         -2.71923       -1.26165        0.03311
C         -1.69950       -0.25499        0.01706
C         -1.90423        1.16448       -0.00725
N         -1.12135        1.93720       -0.01979
C         -0.14820        1.01462       -0.00761
N          1.17807        1.27695       -0.01422
C          2.09649        0.65218       -0.01241
N          3.19489        1.45739       -0.06301
H          4.11717        1.05592        0.05921
H          3.08827        2.45991        0.03804
N          2.29906       -0.44270        0.01031
C          1.73256       -1.39909        0.02930
N          2.55385       -2.48902        0.03994
H          2.16465       -3.41906       -0.06686
H          3.55212       -2.36872       -0.09166
C          0.29145       -1.50641        0.03643
C         -0.60541       -0.42100        0.01870
H         -0.07275       -2.53119        0.05608
N         -3.15759        1.71258       -0.01865
H         -3.98041        1.11958        0.00516
H         -3.27869        2.71922       -0.01837
