21
Coordinates from ORCA-job ./opt_b97-3c_parallel
N          2.49507        2.69952       -0.01024
C          2.05191        1.64583       -0.03064
C          1.27397        0.44145       -0.01804
C          1.87328       -0.86323        0.00659
N          1.31247       -1.80810        0.01613
C          0.12541       -1.18581       -0.00026
N         -1.05938       -1.80883        0.00950
C         -2.12953       -1.57931       -0.01603
C         -2.85026       -0.34265       -0.02906
C         -2.27803        0.93035       -0.03932
N         -3.14014        1.99028       -0.05300
H         -2.77461        2.92050        0.11933
H         -4.12396        1.82299        0.12736
C         -0.90760        1.22612       -0.03829
C          0.17146        0.31427       -0.02226
H         -0.65255        2.28457       -0.05084
H         -3.93038       -0.47200       -0.03337
H         -2.52294       -2.58874        0.00294
N          3.22937       -1.04944        0.02186
H          3.85972       -0.25467        0.00150
H          3.62071       -1.98501        0.02166
