22
Coordinates from ORCA-job ./opt_b97-3c_parallel
N         -3.22694       -1.78282        0.01760
C         -2.20483       -1.27118        0.00505
C         -0.91966       -0.60966       -0.00588
C          0.27120       -1.43752       -0.00589
N          1.35280       -1.17600        0.01018
C          2.03758       -0.30010        0.01173
N          3.32912       -0.74118        0.02777
H          4.08910       -0.07899       -0.08391
H          3.52963       -1.72649       -0.10060
C          1.71501        1.10566        0.00342
C          0.40488        1.59500       -0.00587
C          0.03493        2.93682       -0.00875
C         -1.35781        2.98644       -0.01113
C         -1.89902        1.70092       -0.01005
C         -0.83839        0.79290       -0.00794
H         -2.96123        1.46811       -0.01111
H         -1.94305        3.90266       -0.01269
H          0.69999        3.79709       -0.00739
H          2.56194        1.78837        0.00734
N          0.26166       -2.80497       -0.06941
H          1.11995       -3.32340        0.07730
H         -0.61849       -3.30329        0.01064
