21
Coordinates from ORCA-job ./opt_b97-3c_parallel
N         -3.55947       -2.40102       -0.00002
C         -2.59052       -1.79347        0.00001
C         -1.34749       -1.07273        0.00007
C         -1.45511        0.30862       -0.00019
N         -2.61449        0.97860       -0.00050
C         -2.28704        2.31710       -0.00067
N         -1.00457        2.49736       -0.00048
C         -0.44836        1.32511       -0.00019
C          0.93840        1.16435        0.00007
C          1.67831        2.41156        0.00001
N          2.30123        3.37048       -0.00002
C          1.66811       -0.09351        0.00037
N          2.78178       -0.05459        0.00053
H          3.32194        0.80995        0.00045
H          3.45751       -0.81747        0.00071
C          1.15166       -1.38267        0.00048
C          1.90004       -2.62067        0.00077
N          2.79074       -3.33763        0.00083
C         -0.14849       -1.85748        0.00037
H         -0.36544       -2.92876        0.00051
H         -3.06226        3.09836       -0.00097
