24
Coordinates from ORCA-job ./opt_b97-3c_parallel
N          1.22669        4.21746       -0.01090
C          0.80690        3.15453       -0.00096
C          0.28212        1.80751       -0.00215
C          1.18184        0.73835       -0.00542
C          2.28575        0.62238       -0.00637
C          2.85917       -0.68409       -0.00792
N          2.05761       -1.42714       -0.00621
C          0.90859       -0.72769       -0.00446
C         -0.33615       -1.39751       -0.00419
C         -0.28201       -2.85464       -0.00539
N         -0.25619       -3.99792       -0.00562
C         -1.61696       -0.79458       -0.00321
N         -2.69509       -1.65979       -0.00693
H         -2.54492       -2.66354        0.00429
H         -3.64303       -1.29797        0.00776
C         -1.94027        0.58369       -0.00066
C         -3.34200        0.96288        0.00165
N         -4.44249        1.27191        0.01016
C         -1.10372        1.70404       -0.00002
H         -1.62041        2.66584        0.00247
N          4.20854       -0.87639       -0.01111
H          4.84769       -0.09074       -0.01255
H          4.58544       -1.81806       -0.01310
H          2.93341        1.49554       -0.00748
