24
Coordinates from ORCA-job ./opt_b97-3c_parallel
N         -3.16435       -2.86565        0.02808
C         -2.34126       -2.07233        0.03229
C         -1.28566       -1.07800        0.03142
C         -0.00088       -1.63904        0.03972
C          1.28377       -1.07792        0.03126
C          2.33934       -2.07232        0.03175
N          3.16239       -2.86585        0.02729
C          1.65365        0.27937        0.02145
N          2.99172        0.59625        0.00446
H          3.66421       -0.14217       -0.17524
H          3.26356        1.54899       -0.20947
C          0.73995        1.34235        0.03085
C          1.13462        2.68704        0.04364
C         -0.00084        3.48271        0.05294
C         -1.13631        2.68709        0.04435
C         -0.74183        1.34232        0.03142
C         -1.65541        0.27943        0.02231
N         -2.99351        0.59631        0.00587
H         -3.26536        1.54909       -0.20780
H         -3.66614       -0.14207       -0.17345
H         -2.15261        3.07331        0.05244
H         -0.00081        4.56986        0.06773
H          2.15094        3.07324        0.05109
H         -0.00092       -2.73048        0.04986
