25
Coordinates from ORCA-job ./opt_b97-3c_parallel
N         -3.54926       -3.50296       -0.00051
C         -2.73944       -2.69616       -0.00012
C         -1.72194       -1.65818       -0.00004
C         -0.43619       -2.20164        0.00080
C          0.82302       -1.60897        0.00146
C          1.88937       -2.58560        0.00278
N          2.71006       -3.38144        0.00391
C          1.06729       -0.21929        0.00110
C          2.35019        0.37561        0.00157
C          3.67380       -0.20039        0.00252
N          4.73257       -0.63162        0.00345
C          2.20103        1.74608        0.00076
C          0.86449        2.09138       -0.00035
C          0.50928        3.49115       -0.00054
N          0.25151        4.60461       -0.00036
C          0.07673        0.91017       -0.00044
C         -1.34541        0.86596       -0.00178
C         -2.08930        2.11646       -0.00303
N         -2.70829        3.07813       -0.00361
C         -2.14064       -0.30795       -0.00098
N         -3.51274       -0.12395       -0.00124
H         -4.13838       -0.92316       -0.00232
H         -3.90370        0.81278       -0.00300
H          3.02473        2.45804        0.00090
H         -0.41301       -3.29430        0.00128
