25
Coordinates from ORCA-job ./opt_b97-3c_parallel
N         -4.86865       -0.53850       -0.00130
C         -3.73106       -0.42539       -0.01483
C         -2.28908       -0.27134       -0.01880
C         -1.88315        1.06811        0.00060
C         -0.61290        1.64635        0.00402
C         -0.60289        3.09251        0.02244
N         -0.59963        4.23471        0.02632
C          0.61513        0.96347       -0.00723
C          0.83946       -0.51249       -0.02442
C         -0.10999       -1.54475       -0.04238
C         -1.49999       -1.43888       -0.04093
N         -2.13258       -2.65809       -0.06616
H         -3.13468       -2.69691        0.08875
H         -1.58896       -3.50038        0.08684
H          0.27069       -2.56729       -0.05965
C          1.91273       -0.78849       -0.02526
C          2.87448       -1.85413       -0.03158
N          3.24001       -2.93728       -0.00844
C          2.83681        0.30747        0.03233
C          1.70415        1.18711       -0.00717
H          1.84724        2.26313       -0.04108
N          4.09098        0.85175        0.10198
H          4.89093        0.24097       -0.02906
H          4.21266        1.84489       -0.06122
H         -2.70191        1.78928        0.01430
