24
Coordinates from ORCA-job ./opt_b97-3c_parallel
N         -4.51981       -0.61620        0.00858
C         -3.40422       -0.36824        0.01228
C         -1.98477       -0.07044        0.01150
C         -1.18945       -1.22161        0.00262
C          0.19588       -1.38439       -0.00080
C          0.64360       -2.75937       -0.00455
N          1.00131       -3.84491        0.00351
C          1.15468       -0.35754       -0.00143
C          0.92010        1.11854        0.00175
C          1.85122        1.72139       -0.00112
C          3.01798        0.89710       -0.01034
N          4.37175        1.06397       -0.02653
H          4.75362        1.98761        0.14450
H          4.96630        0.25965        0.14230
C          2.26414       -0.31687       -0.00469
H          2.77324       -1.27596       -0.00674
H          1.93849        2.80553        0.00025
C         -0.30015        1.81099        0.01265
C         -1.59171        1.28323        0.01941
N         -2.57056        2.24714        0.03986
H         -2.32202        3.22821       -0.02308
H         -3.54747        1.97784       -0.01805
H         -0.25037        2.90143        0.01735
H         -1.74800       -2.15920       -0.00013
