23
Coordinates from ORCA-job ./opt_b97-3c_parallel
N          4.74562        1.74396        0.00097
C          3.69279        1.30163        0.00039
C          2.35568        0.75656        0.00029
C          2.27713       -0.63412        0.00008
C          1.16639       -1.47690       -0.00030
C          1.50768       -2.88446       -0.00031
N          1.80211       -3.98854       -0.00028
C         -0.19111       -1.08725       -0.00068
N         -1.14478       -2.03519       -0.00095
C         -2.02824       -1.39376       -0.00104
N         -3.23678       -2.03987       -0.00152
H         -3.28124       -3.05317       -0.00157
H         -4.10462       -1.51312       -0.00147
C         -1.84739        0.03276       -0.00057
C         -3.08945        0.76007       -0.00125
N         -4.09004        1.31293       -0.00060
C         -0.76024        0.30510       -0.00006
C         -0.05661        1.53020        0.00094
C         -0.78242        2.78046        0.00242
N         -1.34133        3.77697        0.00406
C          1.32836        1.69728        0.00077
H          1.66685        2.73480        0.00117
H          3.24278       -1.14270        0.00018
