19
Coordinates from ORCA-job ./opt_b97-3c_parallel
N         -4.11806       -1.18465       -0.30510
C         -3.06797       -0.74196       -0.22422
C         -1.73726       -0.25844       -0.01883
C         -1.64457        1.17421       -0.02325
C         -0.25271        1.51913        0.04525
C         -0.00326        2.91925        0.19676
N          0.27711        4.02603        0.24413
C          0.28758        0.55763        0.04162
N          1.61933        0.28882        0.04340
C          2.18580       -0.67279        0.05089
N          3.50215       -0.43053       -0.20199
H          4.16236       -1.19725       -0.26212
H          3.84135        0.51957       -0.30037
N          1.81909       -1.72893        0.12322
C          0.83802       -2.27200        0.14885
N         -0.20238       -1.86622        0.11659
C         -0.69066       -0.60049        0.04573
H          0.87112       -3.32115        0.40010
H         -2.47552        1.87620       -0.06937
