21
Coordinates from ORCA-job ./opt_b97-3c_parallel
N          3.85757        2.27160        0.02803
C          2.87170        1.69322        0.01715
C          1.63529        0.95095        0.00712
C          0.47340        1.72236        0.00498
C         -0.84088        1.25249       -0.00218
C         -1.33010       -0.15097       -0.00653
C         -2.42234        0.00233       -0.00484
N         -2.66701        1.07477       -0.02915
C         -1.81353        1.77126       -0.00569
H         -2.06906        2.82464       -0.03228
N         -3.56033       -0.75224        0.03223
H         -4.46235       -0.30351        0.14270
H         -3.49702       -1.75145        0.19219
C         -0.59000       -1.33490       -0.01196
C          0.79858       -1.45185       -0.00934
C          1.30306       -2.80249       -0.01665
N          1.69096       -3.87818       -0.02133
C          1.76604       -0.44177        0.00037
H          2.79568       -0.80157        0.00204
H         -1.15844       -2.26453       -0.01891
H          0.60358        2.80408        0.00932
