27
Coordinates from ORCA-job ./opt_b97-3c_parallel
N         -5.66784        0.00194        0.21179
C         -4.52765        0.00141        0.14130
C         -3.09055        0.00095        0.06989
C         -2.29905       -1.13507        0.03917
C         -0.95391       -0.73728       -0.00143
C         -0.95368        0.73817       -0.00072
C         -2.29819        1.13640        0.04040
H         -2.68532        2.15258        0.06187
C          0.10934        1.64664       -0.03557
N         -0.23779        2.97877       -0.09091
H         -1.19068        3.22281       -0.33689
H          0.48807        3.66029       -0.28870
C          1.47837        1.29418       -0.00266
C          2.39522        2.43275       -0.00436
N          3.10484        3.32962        0.00078
C          2.07532       -0.00061        0.03653
N          3.45943       -0.00113        0.11310
H          3.93955       -0.87048        0.32153
H          3.94019        0.86754        0.32287
C          1.47761       -1.29501       -0.00515
C          2.39377       -2.43385       -0.00970
N          3.10205       -3.33197       -0.00888
C          0.10836       -1.64612       -0.03813
N         -0.23981       -2.97843       -0.09523
H         -1.19272       -3.22149       -0.34130
H          0.48565       -3.66004       -0.29414
H         -2.68670       -2.15092        0.05938
