27
Coordinates from ORCA-job ./opt_b97-3c_parallel
N         -4.31927       -2.09935       -0.18368
C         -3.35784       -1.48460       -0.12501
C         -2.13385       -0.72278       -0.04788
C         -0.91944       -1.40917       -0.15279
C          0.34825       -0.78199       -0.08471
C          0.58923        0.69884        0.04838
C          1.95158        1.00522        0.22394
N          2.47031        2.25971        0.41433
H          1.84052        3.00941        0.67773
H          3.44878        2.34425        0.66929
C          2.30236       -0.38396        0.07411
C          3.71080       -0.64101        0.08670
N          4.83190       -0.82546        0.21340
C          1.50829       -1.57082       -0.11045
N          1.52996       -2.93457       -0.23038
H          2.42259       -3.39247       -0.38231
H          0.68984       -3.41481       -0.53206
C         -0.25977        1.43042       -0.00418
N         -1.36337        1.45202        0.14670
C         -2.18812        0.70632        0.16644
N         -3.33998        1.41393        0.37749
H         -4.23700        0.95191        0.27345
H         -3.31930        2.42649        0.33922
N         -0.34482        2.68147       -0.56576
H          0.50708        3.15835       -0.83966
H         -1.17841        3.24465       -0.43351
H         -0.97797       -2.48862       -0.27073
