25
Coordinates from ORCA-job ./opt_b97-3c_parallel
N          4.29946        2.04681        0.01010
C          3.35434        1.40385        0.01000
C          2.15112        0.60715        0.00767
C          0.91976        1.27277       -0.00533
C         -0.33164        0.61097       -0.00518
C         -0.53042       -0.87535        0.01731
C         -1.88321       -1.24749        0.02253
N         -2.34616       -2.53612        0.03712
H         -3.33909       -2.68314        0.18802
H         -1.71004       -3.28448        0.28656
C         -2.28975        0.13652       -0.00556
C         -3.70606        0.34049        0.00668
N         -4.84393        0.45654        0.03648
C         -1.51926        1.35559       -0.02269
N         -1.58689        2.72182       -0.04304
H         -0.75035        3.25042       -0.26210
H         -2.48686        3.15589       -0.21832
C          0.34570       -1.56535        0.02610
N          1.45627       -1.62138        0.02512
C          2.24238       -0.83852        0.01604
N          3.42157       -1.53204       -0.00264
H          4.30720       -1.03665       -0.01876
H          3.42839       -2.54541       -0.00973
H          0.40703       -2.64674       -0.03955
H          0.95013        2.35947       -0.01399
