25
Coordinates from ORCA-job ./opt_b97-3c_parallel
N         -4.88987       -1.09354        0.21923
C         -3.76987       -0.89026        0.11726
C         -2.42771       -0.40207        0.04482
C         -2.15226        1.01183        0.02432
N         -2.72599        2.25456        0.00343
H         -2.15211        3.06391        0.21043
H         -3.72629        2.32479        0.15921
C         -0.77225        0.75804        0.01311
C          0.01790        1.54263       -0.01530
N          1.11262        1.72925       -0.01965
C          1.95713        1.01297        0.01736
N          3.02138        1.85545        0.19943
H          2.90167        2.85502        0.08103
H          3.96481        1.48239        0.17927
C          2.03112       -0.43571        0.00304
C          3.36296       -1.00486       -0.04471
N          4.40948       -1.46310       -0.09042
C          0.88096       -1.25241        0.01461
N          1.04955       -2.61540        0.00735
H          1.97645       -2.99033       -0.16863
H          0.25150       -3.20743       -0.19148
C         -0.43060       -0.70320        0.02807
C         -1.55198       -1.54394        0.05190
H         -1.49657       -2.62906        0.06893
H         -0.01225        2.61724       -0.16535
