27
Coordinates from ORCA-job ./opt_b97-3c_parallel
N          4.83773        1.52014       -0.37362
C          3.72931        1.30666       -0.19823
C          2.42914        0.71851       -0.09499
C          1.46327        1.77199        0.06249
C          0.38829        0.87142        0.06573
C          0.80690       -0.57129       -0.03067
C          0.06172       -1.40546        0.03974
N         -1.02772       -1.57290       -0.11743
C         -1.92883       -0.92432       -0.17357
N         -2.94559       -1.75402       -0.56635
H         -2.80816       -2.75779       -0.54196
H         -3.89912       -1.40706       -0.56368
C         -2.05991        0.50011        0.05258
C         -3.41458        1.00180        0.17116
N         -4.47796        1.40907        0.26655
C         -0.94546        1.35849        0.14274
N         -1.17305        2.70490        0.29495
H         -2.11590        3.01930        0.50087
H         -0.40162        3.30757        0.55682
N          0.13806       -2.64670        0.62362
H         -0.61165       -3.31818        0.49506
H          1.04567       -3.00314        0.90180
C          2.19997       -0.69909       -0.18482
N          2.89492       -1.87207       -0.31763
H          2.38677       -2.71251       -0.56878
H          3.88367       -1.82417       -0.53989
H          1.35287        2.85223        0.11215
