29
Coordinates from ORCA-job ./opt_b97-3c_parallel
N         -5.00391        0.01338        0.14255
C         -3.86322        0.00817        0.06603
C         -2.40175        0.00357       -0.01108
C         -1.80382       -1.28676       -0.04322
N         -2.67291       -2.36382       -0.09354
H         -3.66855       -2.20388       -0.20926
H         -2.30978       -3.29979       -0.24221
C         -0.43404       -1.63128       -0.01894
C         -0.07547       -3.03536       -0.16803
N          0.20335       -4.13581       -0.30370
C          0.63744       -0.74563        0.19172
C          0.63722        0.74815        0.18631
C          1.72468        0.92517        0.33801
C          2.48933        1.76690        1.21931
N          3.04591        2.73766        1.45441
C          2.66574        0.00724       -0.24454
C          1.72717       -0.91904        0.32967
C          2.51160       -1.75676        1.19595
N          3.07706       -2.72579        1.42141
N          3.85111        0.02058       -0.92867
H          4.37641        0.88900       -0.94247
H          4.38803       -0.84039       -0.95590
C         -0.42831        1.63084       -0.05933
C         -0.06380        3.03086       -0.23184
N          0.22110        4.12748       -0.38284
C         -1.79851        1.28867       -0.09711
N         -2.66244        2.36421       -0.21699
H         -3.65673        2.22044       -0.07083
H         -2.29754        3.30656       -0.12142
