25
Coordinates from ORCA-job ./opt_b97-3c_parallel
N          4.35143        0.86561        0.00823
C          3.21314        0.94031        0.07505
C          1.84997        0.50703        0.08725
C          0.93179        1.61148        0.06576
C         -0.27482        0.89611        0.01674
C         -0.04296       -0.57789       -0.00039
C          1.34518       -0.83602        0.00033
N          2.01185       -2.02720       -0.10445
H          3.02202       -1.99210       -0.19035
H          1.53441       -2.78931       -0.57306
C         -1.01363       -1.61138       -0.00394
N         -0.65301       -2.93051        0.06946
H         -1.37383       -3.60896        0.28869
H          0.28990       -3.14277        0.37590
C         -2.39586       -1.43412       -0.05164
C         -3.15578       -0.27303       -0.10326
C         -2.76427        1.05830       -0.09238
C         -1.48946        1.61294       -0.02643
N         -1.48177        2.98341       -0.00813
H         -2.35860        3.47151        0.13776
H         -0.62537        3.46347        0.24285
H         -3.59208        1.76470       -0.13270
H         -4.23082       -0.43226       -0.14791
H         -2.99278       -2.34512       -0.05284
H          1.00645        2.69556        0.07205
