27
Coordinates from ORCA-job ./opt_b97-3c_parallel
N         -2.83890       -3.46453       -0.24320
C         -2.17466       -2.53710       -0.16556
C         -1.31628       -1.36943       -0.07211
C          0.03078       -1.72459       -0.04428
C          1.13263       -0.87437        0.01169
C          1.15456        0.60855        0.00520
C          2.26034        0.58905       -0.05444
N          2.82400       -0.35064        0.06061
C          2.17354       -1.23996        0.07161
N          2.98364       -2.32900        0.23754
H          3.97162       -2.19457        0.42092
H          2.57394       -3.22541        0.47582
N          3.24795        1.47799       -0.38529
H          4.19806        1.15042       -0.51793
H          2.99649        2.38148       -0.77135
C          0.09062        1.51491        0.08716
N          0.47429        2.83627        0.15271
H         -0.22182        3.53299        0.39735
H          1.44528        3.04400        0.36048
C         -1.28659        1.19289        0.10197
C         -2.18187        2.34148        0.20714
N         -2.87496        3.24616        0.29780
C         -1.90908       -0.08404        0.00585
N         -3.29169       -0.08561       -0.00395
H         -3.78507       -0.94448       -0.22577
H         -3.78791        0.79372       -0.10629
H          0.25032       -2.79310       -0.06902
