22
Coordinates from ORCA-job ./opt_b97-3c_parallel
N         -4.15128       -0.96328        0.21465
C         -3.01998       -0.83513        0.11363
C         -1.67386       -0.35512        0.05939
C         -0.81645       -1.51111        0.10538
C          0.29322       -0.65753        0.04626
C         -0.07381        0.79710        0.00443
C         -1.44953        1.06664        0.00539
N         -2.00388        2.31627       -0.03018
H         -1.41230        3.11719        0.15807
H         -2.99925        2.40563        0.14433
C          0.86052        1.85707       -0.03268
C          2.24211        1.65068       -0.00799
C          2.85350        0.34880        0.07503
N          2.35017       -0.64286        0.07712
C          1.32921       -1.08314        0.02947
N          1.91746       -2.31272       -0.13861
H          1.34238       -3.14538       -0.18987
H          2.92120       -2.42812       -0.04574
H          3.90526        0.10195        0.15785
H          2.92156        2.49890       -0.03800
H          0.51832        2.88747       -0.07842
H         -0.72885       -2.59520        0.14424
