23
Coordinates from ORCA-job ./opt_b97-3c_parallel
N         -5.27609       -0.82443       -0.20941
C         -4.14836       -0.64077       -0.16753
C         -2.73065       -0.40859       -0.09978
C         -1.77219       -1.40498        0.01353
C         -0.52963       -0.77799        0.04445
C         -0.74138        0.70431       -0.04077
C         -2.13200        0.84644       -0.13650
H         -2.67300        1.78659       -0.21626
C          0.09879        1.43683       -0.00990
N          1.21322        1.41427       -0.03291
C          2.00141        0.62756       -0.01320
N          3.14921        1.30861       -0.31236
H          3.14899        2.32210       -0.30129
H          4.04240        0.82976       -0.27174
C          1.91943       -0.81389        0.12298
C          3.12175       -1.60236        0.23907
N          4.06711       -2.23862        0.32891
C          0.68672       -1.47643        0.13523
H          0.67598       -2.56177        0.21252
N          0.01442        2.77726        0.25445
H          0.83955        3.36316        0.19412
H         -0.89251        3.22667        0.30981
H         -1.96869       -2.47368        0.05933
