23
Coordinates from ORCA-job ./opt_b97-3c_parallel
N         -4.29667       -1.97983       -0.02609
C         -3.31100       -1.39959       -0.01194
C         -2.05858       -0.68317        0.00249
C         -0.87118       -1.42449       -0.01275
C          0.41376       -0.83885       -0.00718
C          1.52374       -1.68554       -0.02419
C          2.34497       -0.50135       -0.01041
C          3.69860       -0.95921        0.03360
N          4.82219       -1.14212        0.14658
C          2.08587        0.91766        0.01721
N          2.62116        2.17696        0.03184
H          3.61946        2.27251        0.18597
H          2.02422        2.96094        0.26862
C          0.71380        0.62986        0.01541
C         -0.11771        1.37321        0.02472
N         -1.22165        1.50351        0.02632
C         -2.04985        0.76533        0.02790
N         -3.17294        1.54338        0.09199
H         -4.08961        1.11577        0.01403
H         -3.10174        2.55041        0.00073
H         -0.12475        2.45508       -0.06196
H          1.42545       -2.76851       -0.04134
H         -0.95376       -2.50973       -0.03121
