22
Coordinates from ORCA-job ./opt_b97-3c_parallel
N         -3.60380       -2.53272        0.00274
C         -2.64757       -1.90618        0.00237
C         -1.43326       -1.12765        0.00133
C         -0.25250       -1.86473        0.00178
C          1.02906       -1.32699        0.00090
C          2.16858       -2.13026        0.00136
C          3.27962       -1.29794        0.00015
C          2.87921        0.03289       -0.00092
C          1.47867        0.07908       -0.00039
C          0.73423        1.26822       -0.00081
N          1.43628        2.45031       -0.00078
H          0.94014        3.33564       -0.00504
H          2.44963        2.44441       -0.00507
C         -0.67503        1.32107       -0.00100
C         -1.30562        2.62666       -0.00217
N         -1.79210        3.66122       -0.00331
C         -1.59864        0.26316       -0.00009
H         -2.64283        0.57920       -0.00045
H          3.56248        0.87853       -0.00199
H          4.31242       -1.63814        0.00007
H          2.19861       -3.21747        0.00240
H         -0.33994       -2.95044        0.00280
