23
Coordinates from ORCA-job ./opt_b97-3c_parallel
N         -5.32508       -0.26956       -0.07342
C         -4.19323       -0.11242       -0.06178
C         -2.76623        0.06978       -0.04159
C         -2.12523        1.30297        0.00323
C         -0.74183        1.09960        0.01529
C          0.10476        1.81785        0.05168
N          1.21683        1.80921        0.06555
C          1.97286        0.99694        0.02377
N          3.12439        1.71334       -0.16086
H          4.01899        1.23531       -0.15030
H          3.11895        2.71922       -0.03382
C          1.88107       -0.45317        0.00667
C          3.12705       -1.18864        0.04496
N          4.10691       -1.77736        0.08474
C          0.63970       -1.11991       -0.02470
N          0.59988       -2.49146       -0.04739
H         -0.28217       -2.95913        0.12776
H          1.45743       -3.00683        0.12281
C         -0.56848       -0.38873       -0.02665
C         -1.84043       -0.96317       -0.06034
H         -2.08286       -2.02276       -0.09442
H          0.00200        2.89536        0.11595
H         -2.63166        2.26540        0.02755
