22
Coordinates from ORCA-job ./opt_b97-3c_parallel
N         -4.33583       -0.86646       -0.10438
C         -3.19561       -0.84545       -0.02513
C         -1.81917       -0.45594       -0.00055
C         -1.05059       -1.67674        0.00906
C          0.07592       -0.84949        0.00288
C         -0.21069        0.61919       -0.00881
C         -1.56867        0.96442       -0.01637
N         -2.04695        2.24576       -0.03005
H         -3.03532        2.38894       -0.20776
H         -1.40823        3.00166       -0.24830
C          0.78762        1.62009       -0.00895
C          2.15447        1.32688       -0.00407
C          2.67700       -0.01827       -0.00483
N          4.01242       -0.29207       -0.05626
H          4.68806        0.45842        0.03268
H          4.33679       -1.24646        0.05071
N          2.15632       -0.99748        0.00835
C          1.08974       -1.31057        0.00752
H          1.51219       -2.30984       -0.01534
H          2.87760        2.13903       -0.00171
H          0.50970        2.67049       -0.01089
H         -0.97644       -2.76280        0.01817
