19
Coordinates from ORCA-job ./opt_b97-3c_parallel
N         -4.59330       -0.04519       -0.05332
C         -3.46001        0.09568       -0.06999
C         -2.03831        0.22703       -0.07924
C         -1.18883       -0.89434        0.09945
C          0.17594       -0.46131        0.03922
C         -0.15272        0.92601       -0.12460
C         -1.42176        1.42151       -0.25992
H         -1.74329        2.30384        0.29008
C          0.95620        1.84006       -0.09157
N          2.26378        1.52541        0.03141
C          2.95054        0.36402        0.09925
N          2.58731       -0.97770        0.02008
C          1.26944       -1.37163       -0.05448
N          1.48983       -2.45326       -0.08711
H          0.64977       -3.02874       -0.13131
H          2.27417       -3.10475       -0.06408
H          3.97744        0.75608        0.17155
H          0.94091        2.93920       -0.15332
H         -1.56551       -1.90146        0.25088
