19
Coordinates from ORCA-job ./opt_b97-3c_parallel
N         -3.45925       -1.86216       -0.00220
C         -2.47162       -1.28510        0.00026
C         -1.21824       -0.57292        0.00096
C         -0.03472       -1.32085        0.00059
C          1.24458       -0.72984        0.00044
C          1.49680        0.75321        0.00114
C          2.56670        0.47891        0.00044
N          3.03395       -0.51893        0.00025
C          2.21458       -1.25480       -0.00058
H          2.49985       -2.30135       -0.00168
H          3.44788        1.11209        0.00025
C          0.72013        1.55105        0.00181
N         -0.39019        1.62113        0.00251
C         -1.21501        0.87776        0.00247
N         -2.34433        1.64937        0.00199
H         -3.26118        1.21487        0.00029
H         -2.28102        2.66085        0.00082
H          1.06308        2.57990        0.00103
H         -0.11422       -2.40628       -0.00025
