23
Coordinates from ORCA-job ./opt_b97-3c_parallel
N         -4.62077       -0.50566        0.02936
C         -3.50225       -0.27589        0.01925
C         -2.08542        0.00012        0.00990
C         -1.25012       -1.11154       -0.03293
C          0.14755       -1.11884       -0.03773
C          0.77366       -2.36532       -0.08082
C          2.14831       -1.93075       -0.05549
C          2.41382       -0.51763        0.04917
N          3.60596        0.13755        0.19088
H          3.59110        1.03531        0.66185
H          4.44320       -0.42434        0.29671
C          1.10682        0.00650        0.01620
C          0.81142        1.39009        0.02023
N          1.80878        2.32769       -0.01239
H          1.55746        3.28301       -0.24157
H          2.73458        2.01523       -0.28386
C         -0.46919        1.94672        0.02655
C         -1.72543        1.34654        0.03371
H         -2.55277        2.05433        0.05282
H         -0.50942        3.03536        0.03034
H          2.95749       -2.65052       -0.10887
H          0.21609       -3.29850       -0.11948
H         -1.74723       -2.08061       -0.06147
