24
Coordinates from ORCA-job ./opt_b97-3c_parallel
N         -4.32168       -2.12702        0.03729
C         -3.42432       -1.41946        0.01472
C         -2.30207       -0.51182       -0.00843
C         -2.62670        0.84377       -0.04185
C         -1.80681        1.96782       -0.05953
C         -0.41691        2.07523       -0.04277
N          0.04524        3.36478       -0.05351
H         -0.61304        4.11996        0.10394
H          1.02233        3.53590        0.15436
C          0.49518        1.00064       -0.01773
C          1.87376        1.26127       -0.00604
C          2.28914       -0.11565        0.01413
C          3.71080       -0.27661       -0.01245
N          4.77311       -0.69745       -0.07955
C          1.37879       -1.23033       -0.00559
N          1.44622       -2.59607       -0.01818
H          2.35540       -3.02244       -0.16351
H          0.62846       -3.11929       -0.30861
C          0.20752       -0.45629       -0.00988
C         -1.03933       -1.10234        0.00145
H         -1.04156       -2.19012        0.02347
H          2.31086        2.25576       -0.01557
H         -2.35408        2.90908       -0.08544
H         -3.69077        1.07436       -0.05399
