22
Coordinates from ORCA-job ./opt_b97-3c_parallel
N          1.43996        3.53483       -0.03314
C          0.82356        2.57182       -0.01527
C          0.02358        1.36648        0.00622
C          0.66200        0.11200        0.00195
N          2.00355        0.01765       -0.02371
C          2.10764       -1.07397       -0.00670
N          3.34697       -1.64418       -0.01611
H          4.16776       -1.05405        0.06738
H          3.45327       -2.63947        0.14241
C          0.91848       -1.86680        0.02413
C          0.01548       -1.23078        0.02617
C         -1.33610       -1.58313        0.03961
C         -2.42485       -0.71541        0.04271
N         -3.65944       -1.30225        0.04909
H         -3.72996       -2.29653       -0.13775
H         -4.47344       -0.72543       -0.13357
C         -2.41624        0.67951        0.04324
C         -1.35506        1.58253        0.02906
H         -1.66820        2.62557        0.03277
H         -3.39626        1.15345        0.05540
H         -1.56422       -2.64805        0.04909
H          0.96397       -2.95178        0.04063
