26
Coordinates from ORCA-job ./opt_b97-3c_parallel
N         -3.86007       -2.63365        0.00501
C         -3.00711       -1.87135        0.00525
C         -2.06105       -0.79604        0.00176
C         -2.84131        0.41034        0.00033
N         -4.06527        1.02194       -0.00221
H         -4.91143        0.46033        0.00480
H         -4.13953        2.03389        0.00345
C         -1.66968        1.23844       -0.00104
C         -0.58928        0.97624        0.00372
C         -1.00544       -0.46715        0.00238
N         -0.06643       -1.42419       -0.00325
C          1.02485       -1.48093       -0.00321
N          1.13999       -2.84589       -0.00035
H          0.31843       -3.44028       -0.00115
H          2.05684       -3.28203        0.00588
C          2.11603       -0.54326        0.01302
C          3.43268       -1.15354        0.01484
N          4.47459       -1.62399        0.01199
C          1.95037        0.85520        0.02103
N          3.10559        1.60812        0.04361
H          3.05348        2.61862       -0.02708
H          4.00865        1.15100       -0.02622
C          0.71036        1.54708        0.01219
C          0.74783        2.99640        0.01370
N          0.76183        4.14054        0.01124
H         -1.75684        2.32125       -0.00418
