20
Coordinates from ORCA-job ./opt_b97-3c_parallel
N         -5.06732       -0.30202        0.00012
C         -3.92626       -0.23715        0.00025
C         -2.48709       -0.17720        0.00019
C         -1.92951        1.14283        0.00009
N         -0.89549        1.50702        0.00014
C          0.36315        1.04925        0.00049
N          1.45735        1.82310        0.00045
C          2.16216        0.97958        0.00060
N          3.48870        1.31850        0.00060
H          4.20458        0.59938        0.00081
H          3.77280        2.29186        0.00033
C          1.71727       -0.38603        0.00082
C          2.63470       -1.48820        0.00094
N          3.23639       -2.46073        0.00119
C          0.60825       -0.43120        0.00076
C         -0.34481       -1.47395        0.00038
C         -1.73899       -1.35602        0.00081
H         -2.29706       -2.29026        0.00067
H          0.03199       -2.49440        0.00128
H         -2.44510        2.09645       -0.00021
