22
Coordinates from ORCA-job ./opt_b97-3c_parallel
N         -4.93145       -0.94581       -0.00482
C         -3.79936       -0.80411       -0.00611
C         -2.38854       -0.56364       -0.00254
C         -1.48662       -1.68361        0.00009
C         -0.13583       -1.60188        0.00180
C          0.75834       -0.43916        0.00168
C          0.41321        0.94957       -0.00018
N         -0.86794        1.50987       -0.00284
C         -2.01820        0.78285       -0.00407
N         -2.54259        1.76547       -0.00573
H         -3.48916        1.37393       -0.00705
H         -2.70023        2.77541       -0.00621
N          1.47604        1.82833        0.00200
C          2.61115        1.04844        0.00520
N          3.58634        1.57904        0.00793
H          4.40979        0.96993        0.00980
H          3.96962        2.52683        0.00785
C          2.20028       -0.32814        0.00548
C          3.13401       -1.40661        0.00909
N          3.90925       -2.24440        0.01245
H          0.46059       -2.51270        0.00487
H         -1.94830       -2.66824        0.00116
