20
Coordinates from ORCA-job ./opt_b97-3c_parallel
N         -4.27769       -2.09834        0.00073
C         -3.23863       -1.62243        0.00067
C         -1.92018       -1.03657        0.00048
C         -0.86580       -1.95065        0.00088
C          0.50242       -1.71984        0.00081
C          1.14228       -0.47917        0.00020
C          2.22509       -0.25371        0.00022
C          3.49116       -0.92468        0.00044
N          4.15232       -1.85720        0.00080
C          2.40422        1.16694       -0.00027
N          1.52592        1.82955       -0.00061
C          0.56246        0.89249       -0.00031
C         -0.80226        1.24610       -0.00042
C         -1.17623        2.64423       -0.00083
N         -1.49571        3.74180       -0.00122
C         -1.88393        0.36091       -0.00014
H         -2.86471        0.83874       -0.00022
H          3.31651        1.75322       -0.00053
H          1.12961       -2.60933        0.00118
H         -1.14262       -3.00401        0.00129
