26
Coordinates from ORCA-job ./opt_b97-3c_parallel
N          4.09331        1.43597       -0.03750
C          3.24957        0.66522       -0.06915
C          1.90539        0.16416       -0.01408
C          2.22982       -1.23189        0.03177
C          0.81994       -1.49253       -0.00928
C         -0.07199       -0.82624       -0.01967
C          0.81745        0.37707       -0.02137
C          0.45569        1.73150       -0.02713
C         -0.83204        2.25530       -0.04050
N         -0.90818        3.62120       -0.04678
H         -1.80527        4.06436        0.11772
H         -0.06782        4.16029        0.13150
C         -2.05159        1.57956       -0.05134
C         -2.35877        0.21464       -0.04446
N         -3.71192       -0.02667       -0.05822
H         -4.35197        0.74263        0.10277
H         -4.04527       -0.97145        0.10447
C         -1.48094       -0.88904       -0.02699
C         -2.06820       -2.21800       -0.01510
N         -2.51859       -3.26788        0.00022
H         -2.92028        2.23805       -0.06727
H          1.25406        2.47492       -0.02350
H          0.46471       -2.51838       -0.03438
N          3.09307       -2.29288        0.09203
H          4.08194       -2.11516       -0.04615
H          2.74292       -3.22467       -0.09964
