23
Coordinates from ORCA-job ./opt_b97-3c_parallel
N         -4.95286        0.07472       -0.00582
C         -3.81916        0.22135       -0.00261
C         -2.39009        0.42390        0.00064
C         -1.90848        1.73509        0.00020
C         -0.57110        2.15057        0.00116
C          0.58300        1.33934        0.00368
C          0.68529       -0.15775        0.00588
N         -0.43742       -0.89171        0.00101
C         -1.51858       -0.71991        0.00180
N         -1.92709       -2.02426        0.02689
H         -2.91463       -2.25323       -0.00618
H         -1.24960       -2.77789       -0.00980
C          1.72312       -0.53591        0.00926
C          2.43467       -1.77742        0.06205
N          3.11977       -2.69261        0.03000
C          2.63829        0.57198       -0.03262
N          3.95704        0.93008       -0.10002
H          4.21871        1.89589        0.06369
H          4.66260        0.21188        0.02866
C          1.65279        1.61488        0.00348
H          1.90868        2.67096        0.01938
H         -0.41995        3.22805       -0.00060
H         -2.65160        2.52999       -0.00155
