23
Coordinates from ORCA-job ./opt_b97-3c_parallel
N          4.17896        0.09744       -0.19303
C          3.13332        0.55151       -0.11689
C          1.82358        1.14591       -0.02376
C          1.62858        2.52398        0.06368
C          0.27315        2.82927        0.13953
C         -0.42767        1.62829        0.09643
C         -1.82189        1.51111        0.12083
C         -2.51486        0.25063        0.03043
N         -2.11760       -0.78458       -0.00728
C         -1.13727       -1.30520       -0.01177
N         -1.53878       -2.58760        0.25267
H         -2.52043       -2.82982        0.18066
H         -0.85899       -3.34002        0.22940
C          0.23882       -0.84662       -0.05624
C          1.22390       -1.89776       -0.17458
N          1.99018       -2.74137       -0.26351
C          0.56364        0.52576       -0.00219
N         -3.86659        0.16292       -0.13398
H         -4.28881       -0.73349       -0.34957
H         -4.41298        1.00092       -0.29592
H         -2.45429        2.39290        0.19400
H         -0.14770        3.82967        0.20725
H          2.42690        3.26244        0.06829
