21
Coordinates from ORCA-job ./opt_b97-3c_parallel
N          4.68909       -0.00451        0.02741
C          3.54609       -0.00319        0.01031
C          2.10307       -0.00171        0.00339
C          1.50457        1.26131        0.00112
C          0.15832        1.61249       -0.00421
C         -0.94087        0.74657       -0.00769
C         -0.94239       -0.74382       -0.00804
C         -1.99680       -1.07652       -0.01138
C         -2.94027        0.00068       -0.00624
N         -4.30504        0.00011       -0.00649
H         -4.79500        0.87033        0.16956
H         -4.79427       -0.87051        0.16951
C         -1.99587        1.07706       -0.01107
H         -2.30480        2.11891       -0.01947
H         -2.30678       -2.11803       -0.02000
C          0.15507       -1.61191       -0.00553
C          1.50200       -1.26348       -0.00019
H          2.18191       -2.11415        0.00167
H         -0.04616       -2.68192       -0.00751
H         -0.04099        2.68284       -0.00536
H          2.18625        2.11057        0.00399
