20
Coordinates from ORCA-job ./opt_b97-3c_parallel
N          4.09648        1.13205        0.06483
C          3.15347        0.48708        0.03436
C          1.96961       -0.33226        0.00842
C          1.96739       -1.72757       -0.00482
C          0.66160       -2.21862       -0.02928
C         -0.19721       -1.12225       -0.03096
C          0.64181        0.09503       -0.00754
C          0.17363        1.41543       -0.00421
C         -1.22875        1.75382       -0.02344
N         -2.12496        1.09857       -0.03499
C         -2.41138        0.02690       -0.04282
N         -3.77472       -0.01129       -0.00750
H         -4.25216       -0.89392        0.13502
H         -4.29777        0.84543        0.13303
C         -1.59553       -1.16357       -0.04943
H         -2.12501       -2.11306       -0.06785
H         -1.68626        2.73561       -0.05109
H          0.85409        2.26348        0.01215
H          0.37962       -3.26847       -0.04284
H          2.86018       -2.34831        0.00310
