19
Coordinates from ORCA-job ./opt_b97-3c_parallel
N         -4.62423       -1.08029       -0.00130
C         -3.55600       -0.67390       -0.00080
C         -2.21727       -0.14369       -0.00027
C         -1.18338       -1.13772       -0.00067
N         -0.08740       -1.07321       -0.00048
C          0.88721       -0.15245        0.00001
C          0.49598        1.30198        0.00080
C          1.63797        2.06971        0.00133
C          2.64214        1.13780        0.00100
C          2.01302       -0.16689        0.00013
C          3.01146       -1.19377       -0.00007
N          3.71702       -2.09364       -0.00039
H          3.67825        1.46934        0.00141
H          1.73646        3.15305        0.00194
C         -0.77630        1.90140        0.00098
C         -2.00757        1.23714        0.00048
H         -2.89337        1.86814        0.00071
H         -0.82293        2.98825        0.00151
H         -1.28900       -2.21717       -0.00124
