20
Coordinates from ORCA-job ./opt_b97-3c_parallel
N         -3.39074       -1.84027       -0.00254
C         -2.53807       -1.07919       -0.03137
C         -1.50761       -0.08707       -0.01563
C         -2.11697        1.22591        0.01062
C         -1.10281        2.14628        0.02137
C          0.03133        1.36683        0.00150
C         -0.38204       -0.08273       -0.02169
N          0.56495       -1.03134       -0.04569
C          1.65992       -1.06058       -0.03694
N          1.87102       -2.40774       -0.01931
H          1.08684       -3.04069        0.09309
H          2.80697       -2.77333        0.11338
C          2.72401       -0.10082       -0.03681
C          2.53455        1.28016       -0.01651
C          1.30969        1.95588        0.00312
H          1.36527        3.04205        0.01969
H          3.43161        1.89421       -0.01598
H          3.73389       -0.50380       -0.05331
H         -1.18995        3.22992        0.04047
H         -3.15066        1.56552        0.02162
