19
Coordinates from ORCA-job ./opt_b97-3c_parallel
N          4.39894        0.08622       -0.00013
C          3.26790       -0.07774        0.00069
C          1.84215       -0.29959        0.00101
C          1.44989       -1.63962        0.00153
C          0.17315       -2.18461        0.00190
C         -1.03162       -1.48339        0.00174
C         -2.08964       -1.79698        0.00181
C         -3.06369       -0.75114        0.00139
N         -2.60430        0.24768        0.00128
C         -1.28692       -0.01769        0.00120
C         -0.33173        1.01748        0.00081
C         -0.77769        2.39425        0.00030
N         -1.11008        3.48810       -0.00015
C          1.05660        0.85722        0.00069
H          1.62254        1.78961        0.00032
H         -4.14522       -0.81522        0.00113
H         -2.39625       -2.83910        0.00192
H          0.11970       -3.27145        0.00225
H          2.25285       -2.37537        0.00159
