21
Coordinates from ORCA-job ./opt_b97-3c_parallel
N         -4.73203       -0.46548        0.00286
C         -3.58885       -0.45297        0.00156
C         -2.14673       -0.42229        0.00009
C         -1.52431       -1.67216       -0.00048
C         -0.17287       -1.99417       -0.00152
C          0.91105       -1.11351       -0.00216
N          2.14736       -1.63073       -0.00236
C          2.78774       -0.74190       -0.00003
N          4.14910       -0.67031        0.00673
H          4.70280       -1.51929       -0.02155
H          4.62232        0.22536       -0.02410
C          1.98126        0.43690       -0.00162
C          0.87495        0.37854       -0.00228
C         -0.23354        1.23729       -0.00164
C          0.00732        2.66096       -0.00132
N          0.20993        3.78567       -0.00074
C         -1.57473        0.85280       -0.00042
H         -2.28900        1.67705        0.00023
H          2.44839        1.41794        0.00122
H          0.05331       -3.05890       -0.00168
H         -2.18746       -2.53608        0.00006
