25
Coordinates from ORCA-job ./opt_b97-3c_parallel
N         -3.29989       -2.20307       -0.13487
C         -2.69664       -1.23347       -0.10066
C         -1.60272       -0.30819       -0.01798
C         -2.24368        0.97744        0.00942
N         -3.43670        1.64682        0.04167
H         -3.44998        2.64270       -0.14602
H         -4.28688        1.11732       -0.12218
C         -1.00834        1.70740        0.01318
C         -0.06170        1.13520        0.00652
C         -0.49613       -0.29001       -0.01175
C          0.30111       -1.44156       -0.01828
C          1.69211       -1.50510       -0.01311
N          2.21866       -2.76722       -0.01892
H          3.20819       -2.88603        0.16834
H          1.60184       -3.55451        0.14939
C          2.61813       -0.45899       -0.00510
C          2.43260        0.92627        0.00458
N          3.57800        1.67460        0.00963
H          3.51355        2.67084       -0.16674
H          4.46229        1.21329       -0.17493
C          1.24057        1.64915        0.01231
H          1.34076        2.73420        0.02459
H          3.66018       -0.77755       -0.00651
H         -0.21432       -2.40159       -0.02889
H         -0.97354        2.79298        0.06739
