18
Coordinates from ORCA-job ./opt_b97-3c_parallel
N         -3.38841       -1.90905        0.00023
C         -2.63861       -1.04623        0.00019
C         -1.55237       -0.11751       -0.00002
C         -2.04631        1.23012       -0.00059
C         -0.89259        2.08269       -0.00057
C         -0.03100        1.39622       -0.00049
N          1.29174        1.70069       -0.00088
C          2.20344        1.05421       -0.00073
N          2.30451       -0.06297       -0.00057
C          1.62180       -0.95123        0.00064
N          2.08574       -2.23182        0.01028
H          1.44002       -3.01295       -0.00127
H          3.08208       -2.41580       -0.00069
N          0.50837       -1.02094       -0.00010
C         -0.45124       -0.06038       -0.00012
H          3.16255        1.54908        0.00034
H         -0.94189        3.16741       -0.00094
H         -3.01780        1.71972       -0.00085
