16
Coordinates from ORCA-job ./opt_b97-3c_parallel
N         -3.63610       -1.18579        0.02783
C         -2.67351       -0.56908        0.01819
C         -1.38806        0.05538       -0.00577
C         -1.50115        1.48610       -0.00202
C         -0.16244        2.00187       -0.00906
C          0.50103        1.12251       -0.00272
N          1.85635        1.04405        0.00213
C          2.55705        0.17304        0.00413
N          2.33470       -0.92562        0.00137
C          1.44146       -1.60309       -0.00284
N          0.35401       -1.34641       -0.00542
C         -0.30668       -0.16002       -0.00498
H          1.55388       -2.67587       -0.03729
H          3.60380        0.43407        0.04106
H          0.07776        3.06070       -0.02162
H         -2.33349        2.18674       -0.00789
