20
Coordinates from ORCA-job ./opt_b97-3c_parallel
N         -4.18214       -0.24106       -0.00094
C         -3.05542       -0.43388       -0.00066
C         -1.63524       -0.69962       -0.00014
C         -1.27155       -2.04607       -0.00042
C         -0.00468       -2.62816        0.00012
C          1.26307       -2.04852        0.00108
C          1.62918       -0.70258        0.00173
C          3.04979       -0.43933        0.00273
N          4.17669       -0.24821        0.00360
C          0.72958        0.37511        0.00153
N          1.09470        1.66742        0.00201
C         -0.00058        1.88466        0.00127
N         -1.09620        1.66955        0.00083
C         -0.73360        0.37662        0.00071
N          0.00381        3.25197       -0.00060
H          0.87883        3.76408        0.00072
H         -0.86794        3.76958       -0.00013
H          2.08353       -2.76495        0.00133
H         -0.00576       -3.71603       -0.00024
H         -2.09316       -2.76110       -0.00105
