23
Coordinates from ORCA-job ./opt_b97-3c_parallel
N         -4.42184       -0.79777       -0.04952
C         -3.35002       -0.39981       -0.02407
C         -2.00115        0.11283       -0.00298
C         -0.98787       -0.84752       -0.00514
C          0.39715       -0.62308        0.00522
C          1.12312        0.66169        0.00067
C          2.50916        0.46248       -0.02196
C          2.53498       -0.97983       -0.00790
C          1.28686       -1.70343        0.01036
N          0.94900       -3.02753        0.03468
H          1.68224       -3.70355        0.21835
H         -0.00133       -3.28260        0.27844
H          3.48010       -1.51295       -0.00943
N          3.46368        1.44003       -0.05343
H          3.18532        2.38101       -0.30638
H          4.42117        1.16366       -0.24261
C          0.59599        1.95962        0.02543
C         -0.74879        2.31221        0.04254
C         -1.88320        1.50444        0.02458
H         -2.82102        2.05822        0.03297
H         -0.94489        3.38178        0.06729
H          1.28771        2.79792        0.03745
H         -1.32635       -1.88120       -0.02052
