21
Coordinates from ORCA-job ./opt_b97-3c_parallel
N          3.87738        1.50854        0.00250
C          2.90923        0.90110        0.00500
C          1.69521        0.12123        0.00646
C          0.50702        0.85332        0.00348
C         -0.80107        0.34620        0.00112
C         -1.23567       -1.05965       -0.00647
C         -2.62258       -1.19443       -0.01842
C         -2.94315        0.21471       -0.02252
C         -1.89921        1.21352        0.00409
N         -1.83759        2.57881        0.02737
H         -0.95709        3.02222        0.26358
H         -2.69158        3.09775        0.19992
H         -3.98247        0.52594       -0.04952
H         -3.11088       -2.16616       -0.02348
C         -0.45993       -2.22097        0.00266
C          0.92771       -2.29196        0.01457
C          1.86882       -1.26551        0.01487
H          2.90147       -1.61215        0.02110
H          1.33946       -3.29865        0.02272
H         -0.97883       -3.17733        0.00085
H          0.62474        1.93526       -0.00048
