20
Coordinates from ORCA-job ./opt_b97-3c_parallel
N         -4.37554       -1.79223       -0.00693
C         -3.44447       -1.12932        0.00010
C         -2.26262       -0.30225       -0.00010
C         -1.04732       -0.98965       -0.00070
C          0.21542       -0.40066       -0.00077
C          1.39855       -1.13986       -0.00118
C          2.46080       -0.24167       -0.00072
C          3.85049       -0.61681       -0.00085
N          4.95675       -0.90376       -0.00017
C          1.99351        1.06846       -0.00005
C          0.59919        1.02204       -0.00009
C         -0.20190        2.16071        0.00043
C         -1.59370        2.15786        0.00043
C         -2.48663        1.08195        0.00023
H         -3.53306        1.38406        0.00042
H         -2.05689        3.14197        0.00076
H          0.28563        3.13314        0.00085
H          2.61595        1.96038        0.00047
H          1.48941       -2.22372       -0.00166
H         -1.09018       -2.07778       -0.00107
