22
Coordinates from ORCA-job ./opt_b97-3c_parallel
N         -4.28864       -1.89530       -0.01454
C         -3.39603       -1.18148       -0.00357
C         -2.27661       -0.27078        0.00199
C         -1.01414       -0.86549       -0.00432
C          0.23748       -0.22745       -0.00388
C          0.51496        1.23146       -0.00456
C          1.87091        1.57056       -0.01702
C          2.21861        0.17491       -0.02457
C          3.64524        0.07577       -0.00536
N          4.72094       -0.30055        0.08341
C          1.40295       -1.01046       -0.00695
N          1.45299       -2.37771        0.00178
H          0.61573       -2.89513        0.24329
H          2.35033       -2.82362        0.16071
H          2.21400        2.60280       -0.01830
C         -0.39665        2.29216        0.00920
C         -1.78304        2.20856        0.02015
C         -2.60525        1.08603        0.01520
H         -3.66993        1.31572        0.02218
H         -2.30431        3.16325        0.03168
H          0.00444        3.30376        0.01176
H         -1.02162       -1.95343       -0.01313
