22
Coordinates from ORCA-job ./opt_b97-3c_parallel
N          4.38269        0.15223       -0.04244
C          3.25544       -0.04031       -0.04516
C          1.82983       -0.29886       -0.03943
C          1.51335       -1.66391       -0.04064
C          0.28750       -2.32620       -0.03336
C         -1.00105       -1.81056       -0.01574
C         -1.34634       -0.45791       -0.00614
C         -0.44606        0.72897       -0.02430
C         -1.34672        1.36707       -0.02222
N         -2.39624        1.03121       -0.03142
C         -2.37911       -0.06799        0.01710
N         -3.71080       -0.36454        0.10904
H         -4.38502        0.38286        0.22896
H         -4.00064       -1.31073        0.32805
H         -1.40328        2.44353       -0.13825
C          0.95273        0.80359       -0.03545
N          1.47855        2.07283       -0.04400
H          2.47394        2.19094        0.11412
H          0.86652        2.85913        0.14361
H         -1.80733       -2.54181       -0.00687
H          0.34837       -3.41216       -0.03821
H          2.36576       -2.34249       -0.04856
