26
Coordinates from ORCA-job ./opt_b97-3c_parallel
N         -4.31319       -0.05087        0.18318
C         -3.17626       -0.07307        0.06573
C         -1.74592       -0.01151        0.09176
C         -1.06442       -1.27005        0.23744
N         -1.36321       -2.59582        0.41786
H         -0.62716       -3.21456        0.73900
H         -2.32281       -2.84350        0.63541
C          0.22364       -0.71959        0.09003
C          0.18509        0.78354       -0.02258
C         -1.13279        1.27732       -0.09909
N         -1.54784        2.56833       -0.28707
H         -0.90596        3.20445       -0.74677
H         -2.53937        2.72411       -0.43411
C          1.33635        1.62685       -0.01435
N          1.25942        2.99278       -0.05171
H          0.36406        3.41589        0.16609
H          2.08902        3.52113        0.19511
C          2.63430        1.11576        0.09383
C          2.95943       -0.27907        0.22446
N          2.26565       -1.14560        0.19139
C          1.17570       -1.31026        0.04705
N          1.49382       -2.53656       -0.48624
H          2.41404       -2.93791       -0.34013
H          0.74293       -3.16577       -0.74758
H          3.93510       -0.74851        0.17900
H          3.49993        1.77483        0.11746
