23
Coordinates from ORCA-job ./opt_b97-3c_parallel
N         -3.45053       -2.51328       -0.00052
C         -2.45229       -1.95693        0.00010
C         -1.20076       -1.23579        0.00048
C         -0.10107       -2.16434       -0.01378
N          0.99853       -2.04655       -0.01922
C          1.66429       -1.16504       -0.00984
N          2.87299       -1.80989        0.00617
H          3.73641       -1.27721       -0.01635
H          2.92263       -2.82126       -0.03826
C          1.48011        0.27177        0.00421
C          2.70699        1.03981        0.00427
N          3.66886        1.65920        0.00375
C          0.21996        0.90966        0.01525
C         -0.07789        1.97685        0.02720
C         -1.46772        2.30542        0.06737
N         -2.08679        3.51763        0.14622
H         -1.53880        4.36189        0.02188
H         -3.09221        3.56787        0.02375
C         -1.89459        0.94226        0.02576
C         -1.09953        0.17088        0.01377
H         -2.94937        0.68036        0.01777
H          0.68349        2.75184        0.02219
H         -0.12558       -3.24831       -0.02074
