21
Coordinates from ORCA-job ./opt_b97-3c_parallel
N         -4.44482       -0.50553        0.00164
C         -3.32964       -0.25492       -0.00053
C         -1.92549        0.07872       -0.00072
C         -1.74578        1.50751        0.00230
N         -0.84832        2.15453        0.00436
C          0.24134        1.96896        0.00209
N          0.70670        3.25645       -0.01485
H          1.70505        3.43971       -0.00450
H          0.06611        4.04191        0.00247
C          1.07355        0.78431        0.00194
C          2.50010        1.01319        0.00632
N          3.62677        1.20482        0.00528
C          0.57027       -0.52994       -0.00051
C          0.92446       -1.57821       -0.00093
C          2.15625       -2.30813        0.00015
N          3.28191       -2.50308       -0.00030
C         -0.11564       -2.56068       -0.00342
N         -1.15329       -2.19823       -0.00459
C         -0.89381       -0.88089       -0.00237
H         -0.06126       -3.64399       -0.00439
H         -2.49967        2.28712        0.00504
