20
Coordinates from ORCA-job ./opt_b97-3c_parallel
N         -4.16065       -1.16323        0.00447
C         -3.04033       -0.93694        0.00301
C         -1.63322       -0.62872        0.00142
C         -0.80149       -1.80430        0.00197
N          0.29623       -1.94717        0.00214
C          1.16639       -1.26465        0.00121
N          2.17524       -2.19171       -0.00453
H          1.96958       -3.18434        0.00358
H          3.14508       -1.89288        0.00106
C          1.34760        0.17359        0.00025
C          2.72297        0.62418        0.00063
N          3.81402        0.96438        0.00092
C          0.27817        1.09538       -0.00051
N          0.47526        2.42409       -0.00133
C         -0.54444        2.83443       -0.00120
C         -1.48237        1.75579       -0.00052
C         -1.17087        0.69645        0.00005
H         -2.55071        1.95144       -0.00040
H         -0.72031        3.90274       -0.00191
H         -1.10057       -2.84655        0.00050
