19
Coordinates from ORCA-job ./opt_b97-3c_parallel
N         -2.89290       -2.26723       -0.04147
C         -1.96798       -1.59498       -0.02544
C         -0.78916       -0.76314       -0.00463
C          0.40601       -1.56822        0.01612
N          1.48764       -1.33105        0.02392
C          2.07868       -0.39734        0.03335
N          3.37404       -0.82709        0.02848
H          3.57952       -1.81206       -0.09475
H          4.12938       -0.16072       -0.08658
C          1.71949        0.99721        0.03813
C          0.41013        1.49764        0.01942
C         -0.13607        2.45446        0.01560
C         -1.56241        2.36025       -0.01122
N         -1.97363        1.33960       -0.02435
C         -0.82475        0.64526       -0.00434
H         -2.30536        3.14897       -0.02071
H          0.36338        3.41837        0.02996
H          2.56968        1.67504        0.05719
H          0.49761       -2.64828        0.03606
