22
Coordinates from ORCA-job ./opt_b97-3c_parallel
N         -2.55812       -2.61299        0.04830
C         -1.82455       -1.73830        0.00627
C         -1.16000       -0.46904       -0.00867
C         -2.05393        0.65689        0.00781
N         -3.40183        0.89165       -0.01252
H         -3.75037        1.82379        0.18139
H         -4.03060        0.10529        0.11654
C         -1.05704        1.68847        0.03228
C         -0.01124        1.32919        0.01430
C         -0.09859       -0.16862       -0.01621
N          1.03557       -0.88543       -0.05235
C          2.12661       -0.79009       -0.03065
N          2.66836       -2.04167       -0.00728
H          3.66883       -2.15807        0.11945
H          2.07429       -2.85667        0.09362
C          2.94383        0.38727       -0.03637
C          2.47735        1.70146       -0.01162
C          1.14736        2.13416        0.01456
H          1.00999        3.21365        0.03455
H          3.23753        2.47805       -0.01244
H          4.01416        0.19742       -0.05764
H         -1.30631        2.74690        0.04907
