17
Coordinates from ORCA-job ./opt_b97-3c_parallel
N          3.20275        2.02546       -0.24113
C          2.20070        1.48692       -0.13175
C          0.92941        0.82437        0.01242
C          0.79750       -0.57658        0.07321
N          1.75904       -1.50037       -0.03468
C          0.85762       -2.17453       -0.01958
N         -0.19144       -2.58307       -0.00043
C         -0.47814       -1.29149        0.18301
N         -1.64882       -0.63305        0.00989
C         -1.85282        0.46097        0.00655
N         -3.20490        0.62173       -0.03075
H         -3.60532        1.54732       -0.13139
H         -3.80992       -0.18472       -0.13720
N         -1.27156        1.41158        0.01997
C         -0.20217        1.72458        0.05596
H         -0.21371        2.79145        0.24496
H          1.40709       -3.10669       -0.02383
