16
Coordinates from ORCA-job ./opt_b97-3c_parallel
N          1.49952       -0.46301        0.18192
C          0.34716       -0.71824        0.81783
C         -0.51302        0.21481        1.22737
C         -1.58749       -0.29121        1.82501
C         -1.45655       -1.64388        1.80820
C         -1.09012       -2.51515        2.89169
N         -0.82235       -1.99819        4.09514
C          0.50693       -1.99814        4.25532
N          1.17658       -2.41692        3.12064
C          0.15750       -2.77730        2.26061
C         -0.21083       -1.91200        1.17189
H          2.31461       -1.04700        0.36086
H          1.82059        0.49653        0.07264
H         -0.35391        1.28226        1.09180
H         -2.41882        0.27008        2.24380
H          0.88729       -1.61157        5.21289
