22
Coordinates from ORCA-job ./opt_b97-3c_parallel
N          1.40218        0.01778       -0.16472
C          0.26210        0.03446       -0.10821
C         -1.16482        0.01727       -0.04773
C         -1.89075       -0.83640        0.93195
N         -1.87706       -1.56944        1.75528
C         -3.18168       -0.44892        0.53786
C         -4.60503       -0.42932        0.58268
C         -5.88540       -0.74994        1.02485
C         -6.64143        0.12392        0.09013
N         -7.73026        0.28261       -0.01455
N         -5.83220        0.89506       -0.81946
C         -4.66519        0.44574       -0.39702
C         -3.22724        0.42966       -0.44197
C         -1.96136        0.81693       -0.91006
N         -1.99328        1.55744       -1.72736
H         -0.86101       -1.52574        1.68232
H         -2.08349       -2.31693        2.41587
H         -6.22080       -1.41787        1.81198
H         -8.17397        0.86290       -0.72650
H         -8.49018       -0.11671        0.53645
H         -2.25346        2.27218       -2.40523
H         -0.97394        1.51733       -1.73756
