15
Coordinates from ORCA-job ./opt_b97-3c_parallel
C         -0.54642        1.26027       -0.25221
C         -0.17592       -0.03413        0.10240
C          1.21800        0.06018        0.03640
C          2.55966       -0.37543        0.11986
C          3.62707       -1.23962        0.33108
C          4.70744       -0.27186        0.02625
N          4.27413        1.05257       -0.33426
C          2.98103        0.81679       -0.22846
C          1.61186        1.27819       -0.31849
C          0.52322        2.06163       -0.50881
H         -1.57920        1.59372       -0.31666
H         -0.77354       -0.90159        0.36254
H          3.65956       -2.28380        0.62363
H          5.78636       -0.48507        0.05398
H          0.50996        3.10790       -0.80345
