20
Coordinates from ORCA-job ./opt_b97-3c_parallel
N          1.03491       -0.18086        1.04329
C         -0.01403        0.05357        0.65684
C         -1.35511        0.33641        0.25091
C         -2.21327       -0.24133       -0.66524
N         -2.08158       -1.08722       -1.36167
C         -3.50896        0.22764       -0.65184
C         -3.41420        1.14549        0.35555
C         -3.89151        1.00839        1.70301
C         -4.36209       -0.26927        2.13775
N         -3.37872       -0.78557        2.89688
C         -2.30565        0.02019        2.98990
N         -1.50283       -0.44043        3.59421
C         -2.59309        1.21169        2.24059
C         -2.11556        1.35969        0.88558
H         -2.65498       -1.22936       -2.19141
H         -1.11260       -1.12899       -1.67790
H         -4.04256        0.46954       -1.57100
H         -4.86712       -1.24506        2.20283
H         -0.49140       -0.52513        3.48023
H         -1.68499       -0.55255        4.59185
