21
Coordinates from ORCA-job ./opt_b97-3c_parallel
N          1.33926       -0.19588        0.24537
C          0.22038       -0.01008        0.12072
C         -1.18766        0.17866       -0.00489
C         -2.00313        0.54381       -1.04569
N         -1.92806        0.83330       -2.11241
N         -3.31409        0.46910       -0.78055
C         -3.38286        0.11321        0.56314
C         -3.67419       -1.25717        0.88790
C         -4.57427       -1.47385        1.98388
N         -5.61143       -1.35257        2.33555
N         -3.83420       -1.77113        3.06316
C         -2.51771       -1.76621        2.80626
N         -1.98549       -1.93755        3.76259
C         -2.35542       -1.43339        1.41516
C         -2.06377       -0.05861        1.10188
H         -2.58704        1.21157       -2.79617
H         -1.01316        0.90315       -2.56375
H         -6.37007       -1.01851        1.74049
H         -6.06212       -1.85739        3.09909
H         -2.46257       -2.43486        4.51831
H         -1.00142       -1.93294        4.04048
