22
Coordinates from ORCA-job ./opt_b97-3c_parallel
N          0.81504       -1.14162       -1.17627
C         -0.18716       -0.66063       -0.91126
C         -1.43264       -0.02999       -0.61230
C         -2.34559       -0.58555        0.34302
C         -3.62688       -0.07815        0.35035
C         -3.47393        0.94660       -0.54878
C         -4.00653        1.14667       -1.87982
C         -4.64595        0.06829       -2.55478
N         -5.68337       -0.17450       -2.26346
C         -3.61774       -0.33345       -3.47955
C         -3.81524       -1.39650       -4.41620
N         -3.99756       -2.22865       -5.17841
C         -2.38770        0.28449       -3.43503
N         -1.20636        0.31901       -4.07290
C         -2.67565        1.13696       -2.40386
C         -2.24879        0.92739       -1.11774
H         -2.05832       -1.46321        0.91453
H         -4.16103        0.07540        1.28478
H         -6.44150       -0.08723       -1.58947
H         -6.08365       -0.57030       -3.11237
H         -0.96604       -0.42158       -4.72970
H         -0.36013        0.56534       -3.56249
