19
Coordinates from ORCA-job ./opt_b97-3c_parallel
N          1.19704       -0.73658        0.00472
C          0.11812       -0.36592       -0.06062
C         -1.22791        0.10952       -0.10269
C         -2.07820        0.04499        1.04252
C         -3.41408        0.26668        0.81713
C         -3.38461        0.58795       -0.51637
C         -3.86664       -0.18514       -1.63637
C         -4.60867        0.32877       -2.65337
C         -3.79108        0.60252       -3.66081
C         -2.52692        0.29299       -3.39181
N         -1.50372        0.46253       -4.24184
C         -2.51575       -0.23851       -2.13494
C         -2.13734        0.48563       -1.03871
H         -1.68673       -0.30201        1.99421
H         -4.16482       -0.41514        1.20947
H         -5.68214        0.49950       -2.63651
H         -4.12271        1.03607       -4.60163
H         -0.55074        0.53303       -3.88997
H         -1.59642        1.08854       -5.03928
