21
Coordinates from ORCA-job ./opt_b97-3c_parallel
N         -0.93935        2.77371       -6.53463
C         -0.93126        2.28619       -5.28664
C         -0.05507        1.40141       -4.82578
C         -0.28290        1.10992       -3.51023
C          0.35235        1.70327       -2.36248
C          0.59004        0.83428       -1.26082
N          1.04405       -0.05302       -0.78802
N         -0.36012        0.96569       -0.26437
C         -1.20630        1.91082       -0.72818
N         -2.05938        2.02377       -0.03596
C         -0.78535        2.38066       -2.02277
C         -1.43046        1.77128       -3.14462
C         -1.76670        2.59355       -4.26132
H         -1.78487        3.18725       -6.92484
H         -0.45128        2.28682       -7.28492
H          0.75028        0.96794       -5.41583
H          1.35099       -0.59246        0.02044
H          1.70217       -0.25989       -1.53854
H         -2.81589        2.69001       -0.18976
H         -2.18753        1.65930        0.90787
H         -2.16425        3.59142       -4.10009
