23
Coordinates from ORCA-job ./opt_b97-3c_parallel
N          1.25570       -0.43384       -0.29179
C          0.13695       -0.23460       -0.16795
C         -1.25366        0.04537        0.02205
C         -2.04794       -0.68157        0.97515
N         -1.95628       -1.49272        1.71951
C         -3.35307       -0.08777        0.92015
C         -4.35835       -0.77718        0.17122
C         -5.67337       -0.83126        0.72152
C         -6.47534       -0.00133        0.00540
N         -7.78838        0.22185        0.16136
C         -5.70522        0.60376       -0.89184
C         -4.40036        0.21124       -0.78191
C         -3.35640        0.88276       -0.04683
C         -2.05994        0.93316       -0.65477
N         -1.90720        1.63038       -1.49849
H         -0.94668       -1.62552        1.70939
H         -2.29943       -1.87266        2.59928
H         -5.80237       -1.00699        1.78524
H         -8.33639        0.63839       -0.58862
H         -8.37276       -0.45136        0.65344
H         -6.05726        1.34337       -1.60686
H         -2.35774        2.24344       -2.17506
H         -0.93807        1.52375       -1.79350
