20
Coordinates from ORCA-job ./opt_b97-3c_parallel
N         -0.54233        3.10129       -6.38170
C         -0.72127        2.76605       -5.34242
C         -1.82121        2.96089       -4.37402
C         -1.27890        2.22177       -3.32210
C         -1.24364        1.64574       -2.02335
C         -1.65379        1.30605       -0.72399
N         -2.53261        1.51050       -0.09395
N         -0.55169        0.54436       -0.36825
C          0.47881        0.37282       -1.28259
N          1.28665       -0.25827       -0.86732
C         -0.03819        1.12752       -2.36257
C         -0.09571        1.69988       -3.62474
N          0.36272        1.96187       -4.84541
H         -1.21709        3.62796       -6.93978
H          0.26650        2.97534       -6.99281
H         -2.75891        3.50276       -4.45586
H         -3.32821        2.14577       -0.15061
H         -2.63936        1.00644        0.78634
H          1.21778       -0.68218        0.05994
H          2.19625       -0.55495       -1.22614
