25
Coordinates from ORCA-job ./opt_b97-3c_parallel
N          2.42847        2.93019       -0.44686
C          1.93876        1.90264       -0.35332
C          1.38893        0.57576       -0.21454
C          0.00078        0.36161       -0.30206
N         -0.65928        1.49201       -0.66418
C         -1.96275        1.66215       -0.27701
C         -2.78447        1.09472        0.63253
C         -3.06158       -0.09954        0.04891
N         -4.11600       -0.42870        0.02628
H         -4.50779       -1.27076        0.44505
H         -4.88981        0.22518       -0.08438
C         -2.08956       -1.11533       -0.26267
C         -0.64786       -0.88498       -0.17008
C         -0.03089       -2.18725       -0.07035
C          1.30063       -2.45098        0.07161
N          2.42288       -1.74462        0.18990
C          2.43797       -0.37189        0.08044
N          3.52442       -0.51658        0.24675
H          4.41150       -1.00346        0.37296
H          3.74166        0.47844        0.31677
H          1.49043       -3.53242        0.15683
H         -0.68519       -3.05503       -0.06679
H         -2.47312       -2.11862       -0.44086
H         -3.54156        1.68642        1.14723
H         -2.30268        2.62409       -0.69056
