23
Coordinates from ORCA-job ./opt_b97-3c_parallel
N         -0.39211       -3.90924        0.40949
C         -0.05438       -2.82083        0.32662
C          0.41375       -1.46533        0.21602
C          1.78310       -1.52919        0.02769
C          2.69897       -0.44130       -0.14899
C          2.42412        0.90594       -0.13565
N          1.23526        1.58406        0.03370
C         -0.03177        1.05258        0.18826
C         -0.79695        2.14686        0.42998
C         -1.91729        2.38274       -0.29363
C         -2.99849        1.44990       -0.31513
C         -2.84750        0.16822        0.17396
N         -1.81186       -0.65882        0.43416
C         -0.46611       -0.31756        0.26380
H         -3.49196       -0.70749        0.34664
H         -3.95861        1.80105       -0.68163
H         -2.11603        3.37221       -0.69406
H         -0.66817        2.68754        1.36594
N          3.05748        1.80511       -0.23158
H          3.04383        2.74670        0.15985
H          3.98446        1.68634       -0.63967
H          3.73485       -0.73830       -0.29074
H          2.26962       -2.50415       -0.00465
