25
Coordinates from ORCA-job ./opt_b97-3c_parallel
N         -4.92739       -2.07175       -0.05118
C         -3.91386       -1.54370       -0.03567
C         -2.66603       -0.84876       -0.02734
C         -1.61707       -1.68618       -0.22007
N         -0.29450       -1.59035       -0.23009
C          0.50071       -0.44918       -0.13454
C         -0.00221        0.93240       -0.06710
N          0.77092        2.08038       -0.19090
C          2.08525        2.18482       -0.31796
C          3.17100        1.37442       -0.25293
C          3.10279       -0.04905       -0.08179
C          1.91518       -0.88720       -0.10054
C          2.23015       -2.30242       -0.04533
N          2.51069       -3.40886        0.01836
N          4.17379       -0.34103       -0.01924
H          4.19769       -1.28114        0.37325
H          5.02621        0.12274        0.28886
H          4.14376        1.86814       -0.32095
H          2.23673        3.26886       -0.42994
C         -1.40061        1.36729        0.12777
C         -1.73771        2.75944        0.30680
N         -2.03681        3.85077        0.47038
C         -2.58295        0.54938        0.19161
H         -3.53185        1.05507        0.35616
H         -1.45508       -2.76284       -0.38140
