22
Coordinates from ORCA-job ./opt_b97-3c_parallel
N          4.41306        1.17583        0.87211
C          3.35678        0.88009        0.55409
C          2.05148        0.47393        0.13420
C          1.76097       -0.92088       -0.04402
N          0.51420       -1.40568       -0.20585
C         -0.68186       -0.78658       -0.11359
N         -1.78492       -1.63815       -0.07820
C         -3.04857       -1.08536       -0.11550
N         -3.88729        0.00386       -0.13224
C         -3.17549        1.16124        0.08180
C         -1.89037        1.34419        0.49151
C         -0.79712        0.65639        0.03409
C          0.05220        1.60859       -0.46247
C          1.37482        1.52554       -0.41489
H          1.94185        2.33795       -0.87117
H         -0.36776        2.48385       -0.96017
H         -1.74220        2.00509        1.34409
H         -3.97112        1.92181        0.04452
H         -3.86880       -1.81697       -0.18856
N          2.00570       -1.99486        0.01683
H          2.02289       -2.91489        0.45542
H          2.97974       -1.72303       -0.11455
