26
Coordinates from ORCA-job ./opt_b97-3c_parallel
N         -1.35478       -4.09005        0.03902
C         -1.28013       -2.95085        0.04514
C         -1.13530       -1.52640        0.04111
C          0.10888       -0.83037        0.24769
C          1.16296       -1.59741        0.63509
C          2.12738       -1.86372       -0.27325
N          3.09161       -0.90818       -0.49534
C          2.87438        0.40919       -0.09912
N          3.93362        0.68854       -0.25153
H          4.26256        1.41462       -0.89006
H          4.78049        0.28781        0.15589
C          1.68497        1.07519        0.21524
C          0.29490        0.55201        0.18504
C         -0.70354        1.54949        0.12379
C         -0.39782        2.95206        0.16277
N         -0.19199        4.07433        0.19631
C         -2.13852        1.36261        0.00021
N         -2.90001        0.22547       -0.19655
C         -2.37620       -1.00181       -0.19174
H         -3.36976       -1.44558       -0.37034
N         -3.12634        1.86474       -0.07569
H         -4.09587        1.86407       -0.39998
H         -2.98030        2.80236        0.30386
H          1.85142        2.13482        0.36899
H          2.38045       -2.88980       -0.58512
H          1.16680       -2.09191        1.60593
