28
Coordinates from ORCA-job ./opt_b97-3c_parallel
N         -4.79763       -1.80418       -0.40490
C         -3.83166       -1.19517       -0.37181
C         -2.59852       -0.46987       -0.31141
C         -2.82316        0.87709       -0.41826
C         -1.85782        1.92671       -0.42232
C         -0.48354        1.84219       -0.19087
N         -0.25387        2.92786       -0.25676
H          0.72351        3.21314       -0.28430
H         -0.75235        3.59760       -0.84197
C          0.41298        0.69950        0.03795
C          1.72893        1.04316        0.38931
N          2.17554        2.01472        0.69709
H          1.25801        2.33280        1.01185
H          2.85032        2.54143        1.25321
C          2.89662        0.28162        0.44760
C          3.02429       -1.04945        0.16323
N          2.17512       -2.04898       -0.06259
C          0.80784       -1.86137       -0.09695
C         -0.02567       -0.68304       -0.10324
C         -1.36842       -1.18934       -0.24148
H         -1.49299       -2.27064       -0.26116
H          0.72141       -2.95449       -0.19524
N          3.86177       -1.76822        0.10081
H          4.15467       -2.56901       -0.46012
H          4.70439       -1.21850        0.25883
H          3.87401        0.72509        0.69360
H         -2.37583        2.88418       -0.58077
H         -3.84830        1.22393       -0.54169
