30
Coordinates from ORCA-job ./opt_b97-3c_parallel
N         -2.19094       -3.39269       -1.55590
C         -2.15518       -2.51829       -0.82021
C         -1.72153       -1.20608       -0.39831
C         -0.38259       -0.73915       -0.04803
C          0.47764       -1.81426        0.13850
C          1.85084       -1.83178        0.55342
C          2.83043       -0.80113        0.39167
C          2.55634        0.50231       -0.17293
N          3.61452        0.81908       -0.33723
H          3.64128        1.72154       -0.80896
H          4.53146        0.39685       -0.46920
C          1.32471        1.14956       -0.27086
C          1.58087        2.50070       -0.73184
N          1.61905        3.37893       -1.46360
C         -0.02740        0.66971        0.02670
C         -0.90170        1.71853        0.29944
C         -2.31679        1.72028        0.52861
C         -3.25823        0.72227        0.13500
C         -2.94918       -0.55812       -0.40453
H         -3.87494       -1.05721       -0.70201
H         -4.31945        0.95803        0.20053
N         -2.81403        2.64853        0.86386
H         -2.23257        3.44348        1.12253
H         -3.77550        2.90885        1.07467
H         -0.48891        2.70272        0.50157
H          3.85987       -1.11581        0.61912
N          2.27791       -2.80480        0.86174
H          3.21360       -3.04681        1.18199
H          1.68792       -3.61463        1.04319
H          0.06083       -2.81688        0.15341
