26
Coordinates from ORCA-job ./opt_b97-3c_parallel
N          4.83082       -0.04525       -0.20770
C          3.68970       -0.02847       -0.18327
C          2.25861        0.03344       -0.11593
C          1.63372       -1.06087        0.49406
C          0.20574       -1.32515        0.50867
C         -0.57688       -0.58054       -0.43572
C         -0.64373        0.78448       -0.01846
N          0.36171        1.64263       -0.21136
C          1.63694        1.29623       -0.47423
N          1.77760        2.33450       -0.82242
H          2.78679        2.21435       -0.72841
H          1.64776        3.15409       -1.41404
N         -1.82488        1.31995        0.46630
C         -2.89622        0.44936        0.40806
N         -3.50677       -0.73169        0.03119
C         -2.79675       -1.66007       -0.73301
C         -1.39336       -1.57574       -1.08561
H         -0.98522       -2.34235       -1.73860
H         -3.47262       -2.46102       -1.07242
N         -3.74208        0.95731        0.90712
H         -4.70376        0.61421        0.88689
H         -3.77267        1.79768        1.48626
H         -0.22558       -2.18121        1.03744
N          2.02297       -1.96179        1.00781
H          1.90732       -2.96640        1.14426
H          2.99643       -1.76685        1.24739
