27
Coordinates from ORCA-job ./opt_b97-3c_parallel
N         -3.90536       -0.61946       -0.61692
C         -2.91311       -0.28018       -0.27429
N         -2.31185       -1.47437        0.12640
C         -0.97880       -1.60648        0.32880
C          0.14109       -0.81310        0.14785
C          1.38143       -1.56973        0.21367
N          2.63025       -1.09630        0.05937
C          2.91671        0.11563       -0.41483
N          2.18473        1.02571       -0.95387
C          1.09773        1.45616       -0.41771
N          1.26602        2.53275       -0.59438
H          0.62238        3.26588       -0.30387
H          2.08448        3.00194       -0.97967
C          0.01725        0.63122        0.06072
C         -1.13009        1.22878        0.47119
N         -1.10974        1.56821        1.77270
H         -1.78661        2.23472        2.14235
H         -0.21884        1.76348        2.22923
C         -2.29764        1.01485       -0.17970
H         -2.87650        1.86283       -0.53522
H          3.96549        0.43205       -0.52140
N          1.82456       -2.56725        0.37296
H          2.72677       -3.03049        0.26100
H          1.63900       -2.53914        1.37309
H         -1.01415       -2.69284        0.50282
H         -4.22516       -1.35600       -1.24489
H         -4.70931       -0.01272       -0.45822
