26
Coordinates from ORCA-job ./opt_b97-3c_parallel
N         -5.47123       -0.95577       -0.14003
C         -4.36567       -0.67223       -0.07372
C         -2.99412       -0.28070       -0.00648
C         -2.14026       -1.27586       -0.35780
N         -0.82518       -1.46398       -0.34901
C          0.19613       -0.54255       -0.10991
C          1.47028       -1.27628       -0.05189
C          1.46259       -2.72760       -0.02863
N          1.48550       -3.87001        0.01800
C          2.79897       -0.70332        0.03948
C          3.20946        0.66168       -0.15614
C          2.43220        1.77844       -0.24888
C          1.00423        1.88129       -0.03691
C          0.92601        3.32325       -0.04407
N          0.70164        4.44019       -0.15427
C          0.01541        0.90180        0.06441
C         -1.26788        1.53689        0.37590
C         -2.59878        1.00945        0.42659
H         -3.38831        1.69968        0.70929
H         -1.28103        2.58594        0.64268
H          3.04007        2.67519       -0.39890
H          4.28163        0.86990       -0.21917
N          3.76403       -1.24757        0.13422
H          3.57119       -2.15797        0.54953
H          4.77474       -1.12692        0.15751
H         -2.24206       -2.32286       -0.68216
