27
Coordinates from ORCA-job ./opt_b97-3c_parallel
N         -5.87201       -0.46678       -0.12554
C         -4.73395       -0.46072       -0.02659
C         -3.30632       -0.43613        0.05859
C         -2.77616        0.82051       -0.10731
C         -1.37563        1.17901       -0.00812
C         -1.44898        2.61454       -0.14887
N         -0.95255        3.57978       -0.50966
C         -0.22980        0.39338        0.13247
N          0.87900        1.22950        0.22131
C          2.23109        0.97975        0.24453
N          2.31948        2.07731        0.35520
H          3.33704        2.13910        0.40975
H          1.97567        3.02617        0.51006
C          2.93114       -0.24995        0.04479
C          4.35885       -0.13071       -0.06579
N          5.48920        0.01402       -0.15346
C          2.34964       -1.50420        0.00516
C          0.95612       -1.86826        0.16598
C         -0.16907       -1.05524        0.20679
N         -1.25999       -1.89967        0.32796
C         -2.61139       -1.64888        0.32301
H         -3.10422       -2.62362        0.46366
H          0.75097       -2.94515        0.20493
N          2.90308       -2.46168       -0.11142
H          3.88955       -2.52415       -0.36466
H          2.52050       -3.39565       -0.25922
H         -3.50688        1.61473       -0.28545
