31
Coordinates from ORCA-job ./opt_b97-3c_parallel
N         -4.49676       -2.85684        0.34539
C         -3.75416       -2.00970        0.16290
C         -2.79411       -0.96491       -0.03344
C         -3.40052        0.24114       -0.26187
C         -2.81944        1.45035       -0.51570
C         -1.48080        1.81671       -0.47602
N         -1.52411        2.91274       -0.66621
H         -1.82400        2.87582       -1.64301
H         -2.20299        3.51156       -0.19170
C         -0.29081        1.01138       -0.19599
C          0.83635        1.81675       -0.06167
N          2.01740        1.54461        0.60698
C          2.53677        0.29209        0.87315
N          3.36979        0.76497        1.43377
H          3.47708        0.78989        2.44936
H          4.22827        0.33064        1.08577
C          2.26923       -0.85858        0.05861
C          3.42821       -1.71401       -0.07655
N          4.37370       -2.34794       -0.16387
C          0.97653       -1.18927       -0.36997
N          0.94639       -2.19776       -0.84480
H          0.12781       -2.41536       -1.41416
H          1.57291       -2.99708       -0.95202
C         -0.27876       -0.44872       -0.15751
C         -1.39864       -1.28202       -0.08650
H         -1.25896       -2.35532        0.02190
N          1.31220        2.81952       -0.01751
H          0.39111        3.03333       -0.40699
H          1.74164        3.73229        0.14108
H         -3.58994        2.20421       -0.72179
H         -4.48968        0.25631       -0.27281
