32
Coordinates from ORCA-job ./opt_b97-3c_parallel
N         -4.13646       -2.54318       -1.52656
C         -3.68167       -2.00517       -0.62606
C         -2.77922       -0.97734       -0.20025
C         -1.46690       -1.32581        0.00329
C         -0.30471       -0.46161        0.17281
C          0.90402       -1.12655        0.40722
N          0.84062       -2.11412        0.92530
H          1.61016       -2.57585        1.40793
H          0.09793       -1.99559        1.61203
C          2.21589       -0.76490        0.10465
C          3.37556       -1.59201        0.41839
N          4.26951       -2.25028        0.69348
C          2.65612        0.29234       -0.68457
C          1.90626        1.50576       -0.96191
C          0.66844        1.82991       -0.40386
N          0.61275        2.92193       -0.60931
H         -0.39389        3.05262       -0.70054
H          1.05073        3.77525       -0.95191
C         -0.41269        0.98374        0.11570
C         -1.48127        1.68188        0.69563
N         -1.59502        2.71784        1.07886
H         -0.58676        2.85882        1.12679
H         -1.95685        2.92695        2.00795
C         -2.87322        1.30429        0.88582
C         -3.48061        0.18192        0.24810
H         -4.56729        0.16897        0.21963
H         -3.61726        1.98257        1.32309
H          2.43803        2.28460       -1.54366
N          3.63628        0.53372       -1.16528
H          3.83264        1.01798       -2.03921
H          4.23730       -0.28851       -1.14892
H         -1.24934       -2.38014       -0.15429
