29
Coordinates from ORCA-job ./opt_b97-3c_parallel
N         -1.32638       -3.66911       -1.47434
C         -0.81869       -3.23282       -0.54800
C         -0.06315       -2.02043       -0.34208
C         -0.55299       -0.65466       -0.20690
C         -1.95482       -0.61198       -0.19460
C         -2.69900        0.49819        0.34696
N         -3.79940        0.41061        0.42654
H         -4.67249        0.89199        0.64381
H         -3.96998       -0.57301        0.63850
C         -2.13059        1.58624        0.93472
C         -1.50106        2.09743       -0.15370
N         -0.28826        1.70447       -0.67093
C          0.30320        0.55185       -0.23268
C          1.69526        0.58790       -0.04870
C          2.25706        1.92369       -0.02808
N          2.65405        2.99491       -0.00786
C          2.60610       -0.49961        0.23651
N          3.68203       -0.37736        0.48442
H          4.42814       -1.07150        0.51374
H          4.08921        0.48880        0.83603
C          2.38385       -1.85341        0.11276
C          1.22862       -2.50265       -0.21314
H          1.40965       -3.57621       -0.31182
H          3.22057       -2.54469        0.25294
N         -1.45170        2.98954       -0.80591
H         -0.86527        3.74933       -1.15224
H         -2.38976        3.16482       -1.16598
H         -2.66613        2.22603        1.63719
H         -2.56822       -1.47794       -0.42855
