29
Coordinates from ORCA-job ./opt_b97-3c_parallel
N         -5.03730       -0.99923       -1.63453
C         -4.44644       -0.72797       -0.69466
C         -3.29000       -0.02447       -0.22324
C         -2.09971       -0.70927       -0.19296
C         -0.74242       -0.27492        0.15392
C          0.19177       -1.32094        0.25130
N         -0.19468       -2.35004        0.44980
H          0.22358       -3.26242        0.62613
H         -0.83037       -2.16510        1.22379
C          1.58930       -1.35018        0.17865
C          2.39270       -2.56964        0.29218
N          2.99484       -3.53619        0.39869
C          2.47044       -0.31544       -0.12453
N          3.56468       -0.31206       -0.36210
H          4.02383       -1.21414       -0.47834
H          4.00558        0.32599       -1.02307
C          2.13828        1.09911       -0.07605
C          2.98163        2.26764       -0.27964
N          3.54363        3.02571       -0.92571
C          0.92848        1.68668        0.28609
C         -0.41596        1.12759        0.37448
C         -1.29942        2.14601        0.73224
C         -2.72542        2.19328        0.83119
C         -3.64769        1.24767        0.30813
H         -4.69646        1.53548        0.31644
H         -3.15235        3.12061        1.19992
H         -0.89651        3.10689        1.03690
H          0.92727        2.76873        0.42812
H         -2.19374       -1.73238       -0.54846
