25
Coordinates from ORCA-job ./opt_b97-3c_parallel
N         -4.90911       -0.70100       -0.13499
C         -3.83399       -0.31412       -0.14539
C         -2.47416        0.12240       -0.14038
C         -2.40263        1.48362       -0.16362
N         -1.42695        2.38579       -0.17504
C         -0.09093        2.05677       -0.10642
C          0.64406        0.81055       -0.01210
C          2.00738        1.08053        0.11378
N          2.52984        2.06067        0.14766
H          1.91676        2.87224        0.08241
H          3.47793        2.43486        0.17571
C          3.13356        0.18538        0.30408
C          3.09757       -1.18396        0.31071
N          2.05988       -2.06242        0.08405
C          0.72602       -1.76172       -0.09616
N          0.76423       -2.86723       -0.15709
H          0.96088       -3.86233       -0.05208
H          0.16663       -2.78190       -0.97823
C          0.02441       -0.50340       -0.06959
C         -1.38927       -0.80676       -0.14103
H         -1.69169       -1.85057       -0.15605
H          4.09901       -1.61401        0.46666
H          4.13979        0.59098        0.45564
H         -0.16890        3.15488       -0.13599
H         -3.11530        2.32295       -0.18871
