28
Coordinates from ORCA-job ./opt_b97-3c_parallel
N          5.08940        1.56269       -0.26682
C          4.00644        1.19918       -0.23740
C          2.63399        0.75147       -0.16259
C          2.20063       -0.60318        0.08890
N          3.07339       -1.27481        0.25824
H          3.07056       -2.22002        0.64002
H          4.04211       -0.95826        0.30037
C          0.83558       -1.11191        0.01218
C          0.73360       -2.56193        0.12963
N          0.60089       -3.69355        0.22374
C         -0.38930       -0.39998       -0.10328
N         -1.43844       -1.25251       -0.25183
C         -2.72392       -0.82952       -0.19479
N         -3.68121        0.11255       -0.00939
C         -3.17356        1.37091        0.20697
N         -4.07906        1.98924        0.37088
H         -3.91252        2.99470        0.45237
H         -5.05956        1.87091        0.63575
C         -1.78259        1.77740        0.10532
C         -0.52485        1.00786       -0.06647
C          0.45554        1.98692       -0.19820
C          1.86804        1.87533       -0.33538
H          2.35569        2.83680       -0.50528
H          0.18100        3.03618       -0.26652
H         -1.70612        2.85688        0.21296
N         -3.10931       -1.84877       -0.39124
H         -2.62222       -2.73083       -0.56776
H         -4.09783       -2.07256       -0.51037
