22
Coordinates from ORCA-job ./opt_b97-3c_parallel
N         -2.78963       -1.43499        0.37968
C         -2.19345       -0.55611        0.08619
N         -1.02522       -1.14735        0.32502
C          0.16678       -0.53597        0.20499
N          1.06974       -1.46045        0.31862
C          2.21282       -1.57470       -0.27900
C          3.15607       -0.49849       -0.24193
C          2.87385        0.63409        0.46087
C          1.76747        1.40586        0.24672
C          0.40828        0.90745        0.13856
C         -0.57371        1.97620        0.06284
C         -1.97531        1.77255       -0.18014
C         -2.55251        0.59599       -0.52313
H         -3.29689        0.57852       -1.31710
H         -2.57887        2.67530       -0.20126
H         -0.24118        3.00592        0.16434
H          1.90038        2.48366        0.20680
H          3.55812        0.92783        1.25422
H          4.10064       -0.62365       -0.76271
H          2.63459       -2.39398       -0.88036
H         -3.73744       -1.07301        0.28602
H         -2.85054       -2.23961        1.00201
