26
Coordinates from ORCA-job ./opt_b97-3c_parallel
N          2.39256        3.37581        0.33130
C          2.29003        2.24051        0.25400
C          2.09751        0.82104        0.15412
C          0.83555        0.27915       -0.14541
N         -0.13936        1.18256       -0.39322
C         -1.50836        1.02825       -0.43256
N         -1.51692        2.09740       -0.72118
H         -2.52628        2.20151       -0.83203
H         -1.11406        2.99330       -0.99767
C         -2.30129       -0.01423        0.14313
C         -3.66168        0.31615        0.45718
N         -4.73614        0.62574        0.69207
C         -1.84181       -1.37697        0.20485
C         -0.56328       -1.84818       -0.26839
C          0.62836       -1.15889       -0.39822
N          1.65576       -1.96868       -0.76606
C          2.94775       -1.48910       -0.83891
C          3.21146       -1.36273        0.49003
C          3.23804       -0.00454        0.46792
H          4.16037        0.51057        0.72495
H          4.01474       -1.92912        0.95796
H          3.53622       -2.34749       -1.19947
H         -0.49235       -2.93157       -0.39263
N         -2.49016       -2.23539        0.47403
H         -3.46932       -2.21409        0.76024
H         -2.16262       -3.18105        0.67187
