26
Coordinates from ORCA-job ./opt_b97-3c_parallel
N         -1.53012       -3.77815        0.28494
C         -1.40472       -2.64464        0.22122
C         -1.30010       -1.20596        0.14032
C         -2.59853       -0.59433        0.12821
C         -2.94570        0.77842        0.01331
C         -2.02997        1.86906       -0.03655
C         -0.65838        1.89390        0.03538
C          0.30303        0.80787        0.06772
C         -0.01522       -0.64055        0.07135
N          1.00265       -1.53882        0.14772
C          2.24634       -1.19162       -0.28876
C          3.07771       -0.30711       -0.87075
C          2.85372        0.77121       -0.07083
C          1.57581        1.38156        0.22149
H          1.66284        2.41971        0.54088
N          3.75257        1.38638        0.12446
H          4.62959        0.92435        0.35634
H          3.63717        2.14472        0.79379
H          4.07858       -0.61497       -1.17635
H          2.54836       -2.22016       -0.04143
H         -0.23419        2.89762        0.02180
N         -2.56971        2.83143       -0.10536
H         -2.10406        3.57407       -0.62372
H         -3.56977        2.96412       -0.23987
H         -4.01483        0.98690       -0.01126
H         -3.45256       -1.26471        0.18600
