29
Coordinates from ORCA-job ./opt_b97-3c_parallel
N         -0.77690       -4.01914       -0.91456
C         -0.75147       -2.89862       -0.68981
C         -0.68782       -1.48306       -0.35801
C         -1.77624       -0.93326        0.44068
C         -2.24618        0.43569        0.28518
C         -3.57139        0.79957        0.76646
N         -4.59917        1.09424        1.17199
C         -1.54255        1.41964       -0.41037
N         -2.06126        2.34880       -0.75468
H         -3.07870        2.40186       -0.70544
H         -1.75102        3.25071       -1.11451
C         -0.08511        1.50459       -0.38870
C          0.54117        2.73221       -0.86282
N          1.31662        3.50106       -1.20179
C          0.79547        0.46019       -0.07875
C          0.57249       -0.86738       -0.47132
N          1.53311       -1.66791       -0.99290
C          2.83377       -1.39092       -0.72580
N          3.81669       -0.70302       -0.09311
C          3.35824        0.37133        0.63077
C          2.04605        0.97363        0.51863
H          2.00031        1.95195        0.99019
N          4.31565        0.69994        1.07389
H          4.36904        1.58824        1.57249
H          5.20799        0.23415        1.24041
H          3.02053       -2.27426       -1.35810
N         -2.48797       -1.64097        0.92680
H         -3.45613       -1.40645        1.14354
H         -2.43558       -2.65886        0.92159
