20
Coordinates from ORCA-job ./opt_b97-3c_parallel
N          3.87437        1.71415       -0.79173
C          3.32339        0.84715       -0.29079
C          2.03463        0.30396        0.00173
C          2.02827       -0.95892       -0.56949
N          1.25810       -2.05891       -0.20647
C          0.16228       -1.92688        0.61936
C         -0.75044       -0.82941        0.55488
C         -2.11012       -1.20271        0.29884
N         -2.98967       -0.59290       -0.50648
C         -2.95723        0.70100       -0.87673
N         -2.29602        1.77289       -0.28836
C         -1.25281        1.59173        0.60173
C         -0.34092        0.48329        0.63583
C          1.01816        0.91394        0.82156
H          1.24375        1.85705        1.31030
H         -1.14221        2.67403        0.76587
H         -3.72120        1.13784       -1.53746
H         -2.77664       -2.04493        0.06053
H         -0.16395       -2.97409        0.70918
H          2.64089       -1.64970       -1.16869
