26
Coordinates from ORCA-job ./opt_b97-3c_parallel
N         -1.48232       -3.63296       -1.18127
C         -1.75408       -2.83302       -0.41249
C         -1.46322       -1.42896       -0.33139
C         -2.82060       -1.17771       -0.16972
N         -3.45250       -0.00127        0.22254
C         -2.77291        1.19086        0.13121
N         -3.57345        1.77217        0.62235
H         -4.52246        1.73280        0.99568
H         -3.16642        2.63341        0.99041
C         -1.66801        1.62583       -0.51563
C         -0.52156        0.90916       -0.34578
N          0.38951        1.86077       -0.59580
C          1.76115        1.71863       -0.60141
C          2.58864        0.67198       -0.08735
C          3.98276        0.99287        0.04075
N          5.08261        1.27144        0.16671
C          2.18625       -0.61408        0.23239
N          2.80413       -1.45149        0.62079
H          3.67640       -1.02860        0.93706
H          2.71313       -2.32402        1.13890
C          0.89455       -1.22798        0.01033
C         -0.33514       -0.51648       -0.24322
H          0.79436       -2.30707        0.15146
H          2.12934        2.71171       -0.90058
H         -1.73755        2.49730       -1.17341
H         -3.86199       -1.52990       -0.09254
