26
Coordinates from ORCA-job ./opt_b97-3c_parallel
N         -5.38839       -0.82227        0.04214
C         -4.26237       -0.64449       -0.02820
C         -2.84598       -0.44625       -0.07775
C         -2.19644       -1.61040       -0.41433
C         -0.78986       -1.87640       -0.38315
C          0.28585       -1.02190       -0.17282
C          0.20248        0.44081       -0.10660
N          1.30292        1.27983       -0.25340
C          2.56758        0.79157       -0.20240
N          3.44727       -0.22424        0.01140
C          2.88099       -1.46422        0.21747
C          1.49915       -1.84069       -0.01851
H          1.35617       -2.91848        0.01557
N          3.74032       -2.12647        0.44240
H          3.43873       -3.05959        0.73120
H          4.68248       -2.03233        0.82767
N          3.08414        1.74193       -0.43465
H          4.07852        1.87525       -0.62271
H          2.64040        2.60417       -0.75790
C         -0.95937        1.18477        0.08538
C         -1.02388        2.61069        0.30848
N         -0.53483        3.37433        1.00800
C         -2.29318        0.84019        0.20366
H         -3.06657        1.57242        0.45012
H         -0.59394       -2.92959       -0.56763
H         -2.80249       -2.48855       -0.63730
