23
Coordinates from ORCA-job ./opt_b97-3c_parallel
N         -3.73319       -0.78360        0.02988
C         -2.73823       -0.30945        0.03749
C         -1.55377       -1.11985        0.17733
C         -0.23213       -0.66992        0.11891
C          0.67347       -1.82164        0.05263
C          2.05367       -1.87801       -0.06247
N          2.96573       -0.84875       -0.15700
C          2.44703        0.40225       -0.03548
N          1.42234        1.28365        0.13860
C          0.19254        0.74368        0.18124
N         -0.51576        1.85878        0.45221
C         -1.87640        1.79900        0.31804
C         -2.82028        1.01344       -0.24104
H         -3.43487        1.39283       -1.05934
H         -2.52365        2.65554        0.56810
N          3.41542        0.92347       -0.15339
H          3.52751        1.86422       -0.53318
H          4.35949        0.53378       -0.12851
H          2.51831       -2.87565       -0.11857
H          0.20873       -2.80441        0.07442
H         -1.76492       -2.18470        0.25983
H         -3.83270       -1.72480       -0.35055
H         -4.66643       -0.37294       -0.00584
