24
Coordinates from ORCA-job ./opt_b97-3c_parallel
N         -5.33331        0.08506       -0.81591
C         -4.22121        0.02235       -0.56729
C         -2.83617       -0.04845       -0.21580
C         -2.17888       -1.31552       -0.11229
C         -0.98197       -1.48566        0.49263
C          0.13490       -0.79330        0.16885
N          1.23257       -1.65297        0.05091
C          2.49953       -1.11917       -0.11516
N          3.32183       -0.00750       -0.19938
C          2.62793        1.18520       -0.07875
N          1.34583        1.31254        0.06100
C          0.23009        0.64963        0.12901
C         -0.85600        1.51330        0.19380
C         -2.26203        1.18970        0.03993
H         -2.91558        2.05999        0.02114
H         -0.66515        2.58274        0.26318
N          3.17015        2.14746       -0.08240
H          2.77215        3.08620       -0.13641
H          4.16688        2.28834        0.08965
N          3.08086       -2.05588       -0.19690
H          2.71163       -3.00815       -0.17783
H          4.08518       -2.16541       -0.34492
H         -0.94537       -2.16180        1.34556
H         -2.77776       -2.18941       -0.35382
