25
Coordinates from ORCA-job ./opt_b97-3c_parallel
N         -4.55579       -0.67162        0.10933
C         -3.45723       -0.37995       -0.01180
C         -2.08802        0.02548       -0.14666
C         -1.95868        1.28145       -0.71817
C         -0.81092        2.15961       -0.60711
C          0.38705        1.88128        0.04543
N          0.90586        2.84261        0.23132
H          0.79998        3.84089        0.06344
H          1.89677        2.63106        0.12835
C          0.87968        0.54678        0.28823
C          2.15277        0.55744        0.98480
N          3.08297       -0.39444        0.75656
C          2.95487       -1.29339       -0.23111
N          2.18271       -1.66330       -1.20275
C          0.96978       -1.20779       -1.20523
C          0.28365       -0.57426       -0.20571
C         -0.97919       -0.80007        0.24657
N         -1.03641       -1.78256        0.75594
H         -2.01722       -1.95818        0.96885
H         -0.50999       -2.57531        1.11730
H          0.76637       -2.28646       -1.29365
H          3.88690       -1.87796       -0.25736
H          3.11100        0.65726        1.51750
H         -1.01668        3.17244       -0.95624
H         -2.84531        1.75791       -1.12874
