27
Coordinates from ORCA-job ./opt_b97-3c_parallel
N         -3.44383       -0.36511       -0.51119
C         -2.39130       -0.16797       -0.23432
N         -1.88659       -1.44349       -0.40721
C         -0.53766       -1.51771       -0.11168
N         -0.75474       -2.55604       -0.42160
H          0.18368       -2.72724       -0.78668
H         -1.14299       -3.47579       -0.21254
C          0.50542       -0.71499        0.25286
C          1.79689       -1.15964        0.33503
C          2.72869       -0.78356       -0.58791
C          2.91523        0.56678       -0.61770
N          2.43747        1.80899       -0.24274
C          1.20563        1.82012        0.39020
C          0.23117        0.74864        0.37429
C         -0.95102        1.59340        0.43005
N         -2.24014        1.16902        0.10855
N         -1.46194        2.53720        0.71780
H         -0.62566        3.12223        0.66970
H         -2.11329        3.06886        1.30241
H          1.79365        2.72840        0.18008
H          3.88132        0.78913       -1.09781
H          3.54132       -1.45587       -0.86015
N          2.02775       -1.56543        1.33634
H          1.93286       -2.47270        1.79219
H          2.94577       -1.20956        1.60319
H         -4.36660       -0.09012       -0.17270
H         -3.62271       -1.05516       -1.24324
