30
Coordinates from ORCA-job ./opt_b97-3c_parallel
N         -2.52473       -3.42010       -1.70999
C         -1.92312       -2.59014       -1.20084
C         -1.57251       -1.35690       -0.53492
C         -0.13344       -1.47946       -0.51161
C          0.67401       -0.69452        0.24102
C          1.75170       -1.29473        0.83344
N          3.06464       -1.24827        0.55678
C          3.48222       -0.39534       -0.39292
N          2.88620        0.54733       -1.06164
C          1.82828        1.23228       -0.74262
N          2.37144        2.08487       -1.18963
H          1.38130        2.32344       -1.19197
H          2.78062        2.51922       -2.01424
C          0.67897        0.62387       -0.09162
C         -0.41696        1.50226        0.27370
N         -0.17845        2.58733        0.36197
H          0.77206        2.73925        0.69728
H         -0.79247        3.08864        1.00266
C         -1.68671        0.96397        0.52901
C         -2.68249        1.85491        1.09440
N         -3.43603        2.65985        1.39693
C         -2.19404       -0.27889        0.10776
N         -3.26002       -0.60294        0.11647
H         -3.70138       -1.31538       -0.46325
H         -3.77809        0.25905       -0.04790
H          4.43870       -0.12104       -0.86268
N          1.99125       -1.99155        1.65487
H          2.81160       -2.11100        2.24787
H          1.21194       -1.78422        2.27498
H          0.36177       -2.30507       -1.02659
