33
Coordinates from ORCA-job ./opt_b97-3c_parallel
N          4.89223        1.97251       -0.60225
C          3.88866        1.46100       -0.40903
C          2.60439        0.85063       -0.17514
C          1.85565        1.43772        0.90691
C          0.42280        1.41635        1.00514
C         -0.16811        2.28458        1.98172
N         -0.62173        2.95886        2.78500
C         -0.33586        0.72224       -0.01324
C         -1.63026        1.26821       -0.37929
C         -1.76086        2.69290       -0.54558
N         -1.85417        3.82018       -0.71133
C         -2.59049        0.40230       -1.04031
N         -3.40545        0.74874       -1.70941
H         -4.34009        0.44320       -1.97443
H         -3.36089        1.74754       -1.90668
C         -2.95853       -0.86620       -0.59722
C         -2.30817       -1.55495        0.50088
N         -3.04735       -2.28848        0.88557
H         -2.63239       -3.08998        1.35875
H         -4.04948       -2.46429        0.83884
C         -0.96626       -1.41774        0.82198
C         -0.44421       -2.29377        1.84235
N         -0.00045       -2.97252        2.64759
C         -0.10347       -0.68619       -0.08337
C          1.15331       -1.19503       -0.39471
C          1.01815       -2.57966       -0.79349
N          1.14730       -3.68580       -1.05092
C          2.25968       -0.34548       -0.81103
N          2.98493       -0.83533       -1.49977
H          3.92178       -0.47840       -1.68252
H          3.01065       -1.83391       -1.70228
H         -3.89347       -1.30533       -0.97185
H          2.36499        2.17447        1.52384
