30
Coordinates from ORCA-job ./opt_b97-3c_parallel
N         -4.65897       -0.89901       -0.09423
C         -3.55065       -0.62700       -0.06587
C         -2.16150       -0.21710       -0.04540
C         -0.97547       -1.02352        0.21396
N         -1.36138       -2.03607        0.46484
H         -0.47626       -2.42607        0.79040
H         -2.09052       -2.56075        0.94863
C          0.40896       -0.57615       -0.00630
C          1.33587       -1.68246       -0.25938
N          1.13555       -2.75571       -0.46544
H          0.21869       -2.99959       -0.83721
H          1.71824       -3.58408       -0.58187
C          2.71680       -1.70388       -0.44092
C          3.64980       -0.65454       -0.19945
C          3.42439        0.62913        0.21050
C          2.16116        1.32249        0.32774
N          2.48522        2.35727        0.57226
H          3.27372        2.92594        0.26398
H          2.64613        2.15434        1.55890
C          0.81283        0.81856        0.11632
C         -0.07876        1.95792        0.14489
N         -1.37403        2.12201       -0.31050
C         -2.22059        1.10165       -0.42718
N         -2.76333        2.01659       -0.75091
H         -2.85856        2.38574       -1.69793
H         -3.70447        1.74453       -0.46390
H          0.04095        3.05088        0.20817
H          4.34615        1.19382        0.38478
H          4.69024       -0.93929       -0.32659
H          3.26462       -2.61253       -0.73039
