27
Coordinates from ORCA-job ./opt_b97-3c_parallel
N         -3.76563       -1.94974        0.02141
C         -3.07149       -1.04324       -0.02345
C         -2.14600        0.06476       -0.06711
C         -0.77153       -0.19752       -0.22069
N         -0.54254       -1.51027       -0.52073
C          0.55965       -2.14762       -0.00359
N          0.26692       -3.07844       -0.52297
H         -0.45308       -3.78637       -0.67011
H          1.10828       -3.42532       -0.98405
C          1.37344       -1.65406        0.96550
C          2.16644       -0.84593        0.20644
N          3.19633       -1.26508        0.24802
H          3.68482       -0.37211        0.32931
H          3.91678       -1.97975        0.35612
C          1.69539        0.38864       -0.38921
C          2.68690        1.23650       -1.00051
N          3.49828        1.88493       -1.47568
C          0.27176        0.75730       -0.21870
C          0.13670        2.20611       -0.17467
C         -0.97668        2.99341       -0.05466
C         -2.32898        2.59260        0.10416
C         -2.82236        1.31999        0.11953
H         -3.89889        1.24058        0.25593
H         -3.04453        3.40121        0.22355
H         -0.81459        4.06797       -0.04085
H          1.04305        2.79798       -0.19414
H          1.72491       -2.26363        1.80142
