29
Coordinates from ORCA-job ./opt_b97-3c_parallel
N         -1.00625       -3.91690       -0.60702
C         -1.08428       -2.79581       -0.39461
C         -1.15555       -1.37063       -0.15893
C         -2.53133       -1.18735       -0.21083
C         -3.25726        0.01716       -0.00234
C         -2.72293        1.26977        0.13690
C         -1.35657        1.69601        0.05482
C         -0.18472        0.94433       -0.00166
C          0.90783        1.90740       -0.09979
C          2.27259        1.71291       -0.12310
C          3.03715        0.52628        0.09602
C          2.51358       -0.72461        0.28792
C          1.15394       -1.17773        0.19652
C         -0.02418       -0.44586        0.02026
H          1.10285       -2.25178        0.33398
N          3.28937       -1.49451        0.46397
H          3.02984       -2.43913        0.74152
H          4.28249       -1.39303        0.66404
H          4.12234        0.65786        0.11833
N          2.90963        2.60782       -0.25653
H          2.50820        3.35173       -0.82390
H          3.87715        2.50312       -0.55593
H          0.62739        2.95511       -0.19891
H         -1.29483        2.78208        0.09821
N         -3.49951        2.04929        0.25134
H         -3.23223        2.94343        0.65830
H         -4.45785        1.87022        0.54487
H         -4.33979       -0.10852        0.00266
H         -3.21424       -2.02730       -0.35844
