27
Coordinates from ORCA-job ./opt_b97-3c_parallel
N         -4.95668       -1.81389        0.49603
C         -4.07910       -1.11415        0.28081
C         -2.94963       -0.26446        0.04942
C         -3.11785        1.14689        0.13640
C         -2.13925        2.13954       -0.15789
C         -0.71015        1.92184       -0.29891
N         -0.41628        2.98708       -0.40167
H          0.25515        3.06753       -1.16411
H         -0.93552        3.86436       -0.39390
C          0.05577        0.75420       -0.23852
C          1.47857        1.05525       -0.09482
C          2.55273        0.19474        0.04018
C          3.75664        0.89159        0.38157
N          4.73192        1.40670        0.68282
C          2.62041       -1.21945       -0.13355
N          1.60596       -2.07315       -0.48437
C          0.26932       -1.75450       -0.57688
C         -0.45516       -0.60252       -0.35211
C         -1.83936       -1.00892       -0.27994
H         -2.00718       -2.08206       -0.38803
H          0.26065       -2.84113       -0.75107
N          3.28618       -2.10221       -0.12104
H          3.86255       -1.83103        0.67651
H          3.77691       -2.87298       -0.57335
H          1.73687        2.10531        0.01944
H         -2.57482        3.14656       -0.15716
H         -4.12009        1.50916        0.34864
