27
Coordinates from ORCA-job ./opt_b97-3c_parallel
N          3.86480        0.75232       -2.02719
C          3.69938        0.36907       -0.96301
C          2.42178        0.02848       -0.38401
C          1.30453        0.72706        0.08497
N          1.56118        1.80841        0.10949
H          1.19995        2.62528       -0.38220
H          2.56136        1.97635        0.22241
C         -0.05544        0.18184        0.22070
C         -1.01427        1.23488        0.55922
N         -2.40555        1.19095        0.49656
C         -3.01946        0.10157       -0.07726
N         -2.71287       -0.99007       -0.67949
C         -1.68642       -1.68074       -0.32813
C         -0.38676       -1.16210        0.00218
C          0.54903       -2.23520        0.16427
C          1.77767       -2.08452        0.70573
C          2.57409       -1.38651       -0.13544
H          3.44689       -1.91873       -0.51327
H          2.19417       -2.83939        1.36936
H          0.21080       -3.24864       -0.03282
H         -2.13180       -2.67238       -0.50502
N         -4.09710        0.32902       -0.12535
H         -4.38663        1.29154        0.04590
H         -4.65167        0.00184       -0.91532
N         -1.39883        2.23618        0.83118
H         -1.71716        2.86745        1.56639
H         -0.38026        2.23648        0.88120
