27
Coordinates from ORCA-job ./opt_b97-3c_parallel
N          5.62537        1.25195        0.38469
C          4.52530        0.99198        0.21860
C          3.13885        0.67148        0.05648
C          2.68623       -0.64996        0.32555
C          1.38714       -1.22073        0.09460
C          1.42568       -2.64228        0.31737
N          1.49182       -3.76988        0.49468
C          0.13400       -0.49211       -0.17029
C         -0.96200       -1.41721       -0.44605
C         -2.37682       -1.21230       -0.46895
C         -3.07965       -0.08762       -0.11891
C         -4.46725       -0.46686       -0.05217
N         -5.49557       -0.60768        0.42845
C         -2.55052        1.22898        0.07187
C         -1.26330        1.68697       -0.12042
C         -0.00519        0.96140       -0.23024
C          1.00931        1.89444       -0.41120
C          2.42700        1.76042       -0.36286
H          2.96440        2.68554       -0.56331
H          0.74519        2.92594       -0.62487
H         -1.14909        2.77150       -0.08557
N         -3.25661        2.05529        0.29302
H         -4.14871        1.71689        0.65105
H         -3.03939        2.90423        0.81161
H         -2.91032       -2.13829       -0.68102
H         -0.74346       -2.45624       -0.65509
H          3.47117       -1.33970        0.63022
