24
Coordinates from ORCA-job ./opt_b97-3c_parallel
N          4.66264        0.16599       -1.12874
C          3.60962       -0.04841       -0.73995
C          2.27851       -0.29937       -0.28740
C          1.91478       -1.56999        0.27488
N          1.06049       -2.09886        0.73537
C          0.05479       -1.72694        1.00182
C         -0.62487       -0.63702        0.34713
C         -1.88470       -1.12643       -0.16529
N         -3.00477       -0.39902       -0.31151
C         -2.97489        0.91586       -0.04237
N         -2.07634        1.79202        0.28548
C         -0.81151        1.80326       -0.00220
N         -0.80414        2.89133       -0.18379
H         -1.28392        3.68981        0.22695
H          0.13555        2.87740        0.20564
C          0.01288        0.62079        0.01431
C          1.35030        0.73093       -0.33812
H          1.69994        1.70183       -0.67739
H         -3.83804        1.59284       -0.12466
N         -2.49191       -1.95916       -0.56018
H         -1.57112       -2.06889       -0.97978
H         -3.17427       -2.10861       -1.30107
H         -0.42403       -2.56210        1.53608
H          2.64250       -2.39199        0.35693
