24
Coordinates from ORCA-job ./opt_b97-3c_parallel
N          4.57809        1.11476       -0.21992
C          3.54045        0.63504       -0.21739
C          2.23398        0.05775       -0.17949
C          1.04896        0.85700       -0.15554
C         -0.32992        0.39234       -0.07664
C         -1.25684        1.51976       -0.08379
N         -1.03600        2.60285       -0.19283
H         -1.51380        3.46356       -0.45314
H         -0.60556        2.24012       -1.04130
C         -2.64096        1.57157        0.05758
C         -3.54895        0.48682        0.24806
C         -3.28993       -0.85543        0.27047
C         -2.04753       -1.54425        0.12717
C         -0.71938       -1.00596       -0.00852
C          0.14047       -2.16279       -0.07574
N          1.50434       -2.33085       -0.16406
C          2.34430       -1.30200       -0.19165
H          3.12850       -2.07350       -0.22399
H          0.27136       -3.25557       -0.07815
H         -2.14491       -2.62722        0.16274
H         -4.13851       -1.51935        0.40216
H         -4.58803        0.77778        0.36701
H         -3.19008        2.52183        0.05506
H          1.25270        1.92286       -0.17391
