22
Coordinates from ORCA-job ./opt_b97-3c_parallel
N         -2.77250       -1.93860       -0.05772
C         -1.92767       -1.22397       -0.03051
N         -2.58786       -0.00143       -0.01331
C         -1.97096        1.19068        0.03810
N         -2.86421        1.84443        0.02377
H         -3.82075        2.00751        0.34210
H         -2.57234        2.72763       -0.39859
C         -0.67454        1.64277        0.10297
C          0.49177        0.80866        0.09019
N          1.65053        1.58304        0.15431
C          2.88237        0.95570        0.13054
N          3.63175       -0.19861        0.06246
C          2.83314       -1.31872       -0.01589
N          1.53917       -1.37295       -0.01751
C          0.51513       -0.57904        0.01463
C         -0.51479       -1.50901       -0.03548
H         -0.31700       -2.58423       -0.07881
H          3.79051       -1.86163       -0.05842
H          3.82775        1.51841        0.18030
H         -0.48605        2.71447        0.15704
H         -3.77630       -2.09489       -0.16084
H         -2.37594       -2.86812        0.09109
