29
Coordinates from ORCA-job ./opt_b97-3c_parallel
N         -5.44722       -0.73243        0.37937
C         -4.30594       -0.66403        0.37977
C         -2.88571       -0.52980        0.34038
C         -2.41077        0.51742       -0.40793
N         -1.21949        1.11456       -0.52332
C          0.01518        0.61685       -0.08571
C          0.99680        1.68464        0.06281
C          0.54367        3.05680        0.03086
N          0.13611        4.12393        0.02076
C          2.35955        1.45789        0.48916
N          3.07994        2.24247        0.80266
H          2.78049        3.17876        1.07350
H          4.09701        2.28127        0.73992
C          3.16845        0.40191       -0.06842
C          2.65590       -0.85081       -0.56782
N          3.53886       -1.37473       -0.98957
H          4.54599       -1.22018       -0.95372
H          3.41455       -2.37877       -1.11950
C          1.47733       -1.48155       -0.01459
C          1.46430       -2.92762       -0.00646
N          1.43209       -4.06934       -0.04033
C          0.25654       -0.75633        0.31899
N         -0.70210       -1.60616        0.87263
C         -2.05435       -1.42850        1.06654
H         -2.48153       -2.27142        1.63220
H          4.25368        0.56842       -0.12672
N         -2.71973        1.37015       -1.04609
H         -3.68674        1.06312       -1.16029
H         -2.62393        2.19121       -1.64494
