26
Coordinates from ORCA-job ./opt_b97-3c_parallel
N          4.38790        1.28857        1.19028
C          3.44438        0.78781        0.78714
C          2.24809        0.13997        0.31987
C          1.20402        0.88076       -0.26243
N          1.36885        1.95359       -0.50432
H          2.32357        2.09911       -0.83783
H          1.03463        2.88359       -0.24467
C         -0.11750        0.47946       -0.47777
C         -1.08066        1.36550       -1.13193
N         -2.45484        1.38341       -0.87550
C         -2.96275        0.62366        0.16321
N         -2.60540       -0.21937        1.07868
C         -1.54480       -0.96114        1.04684
C         -0.56945       -0.79916       -0.00086
C          0.18553       -1.89182       -0.54694
N          1.44442       -2.16744       -0.19388
C          2.29326       -1.30843        0.40843
H          3.22699       -1.76738        0.77195
N          0.05186       -2.87863       -1.03546
H         -0.55698       -3.04178       -1.83990
H          0.61132       -3.73356       -0.97021
H         -2.08077       -1.83244        1.45460
N         -4.02337        0.92382        0.21094
H         -4.56110        0.84520        1.07568
H         -4.50505        1.63728       -0.33880
H         -1.68238        2.13565       -1.63875
