28
Coordinates from ORCA-job ./opt_b97-3c_parallel
N          5.20029       -0.21615        0.59240
C          4.07817       -0.11653        0.40427
C          2.66808       -0.05708        0.16918
C          1.98478        1.19926        0.22763
C          0.59642        1.46225       -0.05634
C          0.21215        2.84039        0.03076
N         -0.15686        3.91711        0.10731
C         -0.42969        0.48818       -0.39940
C         -0.26745       -0.95481       -0.39001
N          0.86567       -1.75370       -0.25754
C          2.11032       -1.29364       -0.05955
N          2.37735       -2.36926       -0.14223
H          2.65566       -3.00111       -0.89633
H          3.17954       -2.37225        0.49526
C         -1.32229       -1.81537       -0.58336
C         -2.51987       -1.63681        0.06613
N         -3.32281       -0.54237        0.37691
C         -2.82591        0.68823       -0.04424
C         -1.67620        0.96748       -0.73358
H         -1.76544        1.51003       -1.67647
N         -3.52040        1.51498        0.20798
H         -3.27044        2.46653        0.49267
H         -4.52652        1.56636        0.02649
N         -3.19841       -2.38822        0.51983
H         -3.10727       -2.93978        1.37757
H         -4.06312       -2.73235        0.09207
H         -1.27643       -2.53425       -1.40258
H          2.60455        2.06392        0.46302
