27
Coordinates from ORCA-job ./opt_b97-3c_parallel
N          0.13183        3.68946        0.69209
C         -0.23630        2.62678        0.48126
C         -0.64641        1.27350        0.20228
C         -2.05852        1.04302        0.09468
C         -2.57731        0.00629       -0.60355
C         -2.41286       -1.20799       -0.03724
C         -1.15839       -1.78627        0.33331
C          0.09189       -1.17889        0.18868
C          0.33686        0.28572        0.00775
N          1.57642        0.77264       -0.22877
C          2.63369       -0.07065       -0.22151
N          3.33614       -1.21679       -0.08521
C          2.54219       -2.23156        0.26010
C          1.09534       -2.24945        0.35155
H          0.73321       -3.25065        0.56799
H          3.06201       -3.18811        0.42520
N          3.39716        0.67378       -0.50855
H          4.38300        0.43428       -0.60703
H          3.29302        1.60352       -0.91440
H         -1.24681       -2.83070        0.62738
N         -3.34474       -1.79804       -0.01041
H         -4.29664       -1.48477       -0.19640
H         -3.27095       -2.73452       -0.40616
H         -2.87888        0.11112       -1.64805
N         -2.95064        1.68304        0.24297
H         -2.64269        2.52455        0.72869
H         -3.96381        1.64663        0.34567
