30
Coordinates from ORCA-job ./opt_b97-3c_parallel
N         -5.65249       -0.08234       -0.42543
C         -4.52530        0.00320       -0.26032
C         -3.10481        0.04691       -0.04684
C         -2.44424        1.25061       -0.24491
C         -1.05993        1.58121        0.03585
C          0.01193        0.71998        0.21987
N          1.15238        1.49166        0.42617
C          2.49026        1.15181        0.44473
N          2.75837        2.18988        0.72714
H          2.64846        2.98547        1.35831
H          3.75868        2.16527        0.51395
C          3.09084       -0.05997       -0.02955
C          4.51285       -0.02016       -0.22979
N          5.64189        0.06170       -0.38345
C          2.43058       -1.26311       -0.22602
C          1.04373       -1.59252        0.04789
C         -0.02796       -0.72949        0.22371
N         -1.16919       -1.49982        0.43195
C         -2.50751       -1.15920        0.44179
N         -2.77296       -2.19612        0.73129
H         -2.66202       -2.99142        1.36383
H         -3.77331       -2.17203        0.52016
H          0.78136       -2.65650        0.01096
N          2.89073       -2.22404       -0.54180
H          3.88950       -2.18383       -0.75493
H          2.56504       -3.09079       -0.97153
H         -0.79804        2.64560       -0.00473
N         -2.90417        2.20890       -0.56882
H         -3.90105        2.16708       -0.78654
H         -2.57688        3.07548       -0.99784
