26
Coordinates from ORCA-job ./opt_b97-3c_parallel
N         -0.74032       -4.03246        0.54072
C         -0.95543       -2.92703        0.34817
C         -1.16186       -1.52541        0.10559
C         -0.06389       -0.65805       -0.03347
N          1.13542       -1.29680       -0.18477
C          2.30717       -0.56019       -0.23658
N          2.97192        0.65358       -0.18231
C          2.11618        1.72180        0.02894
N          0.82958        1.61694        0.14725
C         -0.13604        0.74475        0.08725
C         -1.19828        1.63381        0.26620
C         -2.53906        1.21386        0.01506
C         -2.92369        0.05459       -0.56146
C         -2.53385       -1.11341       -0.00509
H         -3.28658       -1.87835        0.16874
H         -3.46927        0.04887       -1.50570
N         -3.37375        1.92285        0.13836
H         -4.21130        1.61611        0.63375
H         -3.65367        2.74016       -0.40451
H         -1.07679        2.68868        0.53572
N          2.51278        2.74878        0.11751
H          3.49338        3.02998        0.16559
H          1.98040        3.61100        0.24368
N          2.95311       -1.44451       -0.39104
H          2.77796       -2.43820       -0.22630
H          3.89154       -1.40609       -0.79161
