21
Coordinates from ORCA-job ./opt_b97-3c_parallel
N         -5.11363       -0.47183        0.03246
C         -3.99661       -0.23311        0.07025
C         -2.60590        0.08771        0.08205
C         -2.14994        1.42322        0.27572
N         -0.84804        1.87685        0.23933
C          0.31649        1.13920        0.06817
C          1.26134        2.12817        0.05626
C          2.57847        1.84222        0.12091
N          3.57149        0.90633        0.09058
C          3.08733       -0.33722       -0.03075
C          1.82645       -0.90700       -0.10748
C          2.11512       -2.30917       -0.19806
N          2.35171       -3.42739       -0.23567
C          0.49835       -0.30145       -0.05101
N         -0.49924       -1.26467       -0.13436
C         -1.80918       -1.01087       -0.09364
H         -1.97876       -2.08747       -0.24133
H          4.16497       -0.56128       -0.02510
H          3.23181        2.72503        0.19120
H          1.00016        3.15221       -0.21547
H         -2.78877        2.30601        0.43118
