28
Coordinates from ORCA-job ./opt_b97-3c_parallel
N          5.01138        0.06042        0.37420
C          3.89826       -0.08481        0.15926
C          2.49827       -0.22371       -0.09857
C          2.18431       -1.26368       -0.95308
N          1.02257       -1.81361       -1.36281
C         -0.14923       -1.44721       -0.71842
C         -0.27656       -0.70729        0.51890
C         -1.54694       -1.34172        0.80080
N         -2.79855       -0.81331        0.48976
C         -2.79661        0.39527       -0.18772
N         -2.03306        1.33099       -0.66171
C         -0.76581        1.49606       -0.43944
N         -0.81325        2.54472       -0.77893
H          0.20425        2.60851       -0.75689
H         -1.15769        3.50400       -0.79066
C          0.17616        0.62845        0.04662
C          1.48808        0.65984        0.43532
N          1.62458        1.50370        1.14100
H          1.30702        2.23562        1.77512
H          2.61532        1.36851        1.34200
N         -3.85202        0.64005       -0.39207
H         -4.67182        0.07750       -0.16803
H         -4.16529        1.35741       -1.04507
N         -2.08107       -2.11583        1.37848
H         -1.23531       -2.67982        1.45547
H         -2.69896       -2.42245        2.12911
H         -0.33819       -2.19026       -1.50944
H          2.83268       -1.95346       -1.51528
