25
Coordinates from ORCA-job ./opt_b97-3c_parallel
N         -5.06339       -0.84763       -0.04536
C         -3.94156       -0.64115       -0.07541
C         -2.52641       -0.41303       -0.08582
C         -1.65200       -1.54107       -0.07338
C         -0.21723       -1.58258       -0.10894
C          0.29953       -2.92559       -0.15134
N          0.75546       -3.97261       -0.18030
C          0.69592       -0.44483       -0.03240
N          2.03465       -0.89197       -0.05627
C          3.10426       -0.05811        0.20788
C          3.78340        1.07120        0.55933
C          2.60885        1.71722        0.34578
N          1.28367        1.99867        0.12370
C          0.32674        0.98022        0.00990
C         -0.93997        1.54417       -0.10532
C         -1.26241        2.95036       -0.17954
N         -1.25160        3.72286       -1.02261
C         -2.24643        0.93076       -0.14706
H         -3.11538        1.59361       -0.20638
H          2.69173        2.81562        0.32728
H          4.69434        1.38928        0.05518
N          3.64918       -0.99534       -0.03057
H          4.39613       -0.69961       -0.65882
H          3.75908       -2.00575        0.06917
H         -2.15606       -2.50614       -0.06715
