25
Coordinates from ORCA-job ./opt_b97-3c_parallel
N          2.25114        3.55586        0.19543
C          1.43562        2.75695        0.16376
C          0.45132        1.71819        0.10767
C         -0.74828        2.37646        0.11220
N         -2.04066        2.04313        0.10928
C         -2.48609        0.73723        0.06055
N         -3.50243        1.18131        0.11407
H         -4.10904        0.37884        0.30043
H         -4.14567        1.96764       -0.00083
C         -1.77632       -0.52106       -0.04805
C         -2.67244       -1.64400       -0.11292
N         -3.42227       -2.50272       -0.15167
C         -0.32189       -0.72983       -0.07861
N         -0.01034       -2.08935       -0.20594
C          1.29420       -2.51459       -0.28734
C          2.65066       -2.54906       -0.33553
C          2.64674       -1.20950       -0.07634
N          2.10828        0.05651        0.09422
C          0.72164        0.30218        0.03191
N          3.62140       -0.71772        0.13016
H          4.22000        0.10707        0.05466
H          4.23651       -1.44604        0.49685
H          3.20959       -3.26282        0.27026
H          1.00315       -3.57256       -0.38851
H         -1.07919        3.42750        0.15077
