26
Coordinates from ORCA-job ./opt_b97-3c_parallel
N          3.21750        2.77299       -0.30096
C          2.24743        2.18276       -0.16770
C          1.00179        1.47820       -0.00817
C          0.01223        2.35389        0.55553
C         -1.40405        2.21230        0.50846
C         -2.09983        1.07945       -0.04981
N         -3.10004        1.55640       -0.17079
H         -3.56566        2.46138       -0.19724
H         -3.71795        0.89844       -0.64326
C         -1.61507       -0.22000       -0.13715
C         -2.71774       -1.08974       -0.49417
N         -3.33366       -1.72132       -1.22136
C         -0.27408       -0.72080        0.15070
C         -0.29852       -2.05382        0.54731
C          0.77103       -2.96018        0.81576
C          2.07385       -2.89435        0.25306
C          2.57290       -1.83672       -0.55747
C          2.11971       -0.54441       -0.64905
C          0.91175        0.08142       -0.11879
H          2.83528        0.07919       -1.17089
H          3.54049       -2.05328       -0.99975
H          2.70123       -3.77302        0.36516
H          0.50747       -3.89479        1.30126
H         -1.23478       -2.49793        0.86777
H         -1.92431        3.13492        0.78965
H          0.33973        3.35195        0.83740
