25
Coordinates from ORCA-job ./opt_b97-3c_parallel
N          2.13692        3.41930        0.66286
C          2.03138        2.31002        0.40734
C          1.90836        0.90337        0.12738
C          3.25176        0.40029        0.04844
N          3.76876       -0.83992       -0.20999
C          2.97337       -1.89303       -0.27066
C          1.64428       -2.15114       -0.11330
C          0.54812       -1.20370        0.01494
C         -0.61228       -1.96506        0.13166
C         -1.93081       -1.61025        0.23218
C         -2.51442       -0.37354        0.12448
C         -3.94122       -0.54869        0.22261
N         -5.06857       -0.51095        0.03607
C         -1.78989        0.84410       -0.10690
C         -0.41928        1.04681       -0.11528
C          0.68915        0.19374        0.00731
H         -0.20033        2.09584       -0.28797
N         -2.41149        1.75382       -0.24131
H         -3.41093        1.63689       -0.40200
H         -2.16857        2.68332       -0.57876
H         -2.58897       -2.46724        0.37480
H         -0.51889       -3.04533        0.18862
H          1.40937       -3.21022       -0.15102
H          3.78588       -2.61891       -0.42486
H          4.26578        0.82401        0.10210
