26
Coordinates from ORCA-job ./opt_b97-3c_parallel
N          4.15325        1.56524        0.12372
C          3.15192        1.01801        0.05518
C          1.86191        0.34663       -0.00358
C          0.60185        1.08605        0.01011
N          0.76036        2.18602        0.06849
H          0.03255        2.26473        0.77644
H          1.58934        2.63682        0.45260
C         -0.74703        0.53854       -0.11517
C         -1.78405        1.52447       -0.40147
C         -3.03236        1.20587       -0.81472
C         -3.81938        0.50222        0.02508
N         -3.65820       -0.76744        0.51266
C         -2.42740       -1.29016        0.36567
C         -1.13663       -0.85381        0.07881
C         -0.26025       -1.99193        0.13358
C          1.09031       -2.09355       -0.07544
C          2.06192       -1.02237       -0.16155
N          2.98073       -1.64115       -0.29292
H          3.03297       -2.39003       -0.98092
H          3.77415       -1.02827       -0.47371
H          1.41704       -3.13978       -0.11031
H         -0.76871       -2.94234        0.28046
H         -3.06108       -2.14624        0.64220
H         -4.82639        0.92978        0.14164
H         -3.37052        1.45913       -1.81682
H         -1.51306        2.57063       -0.49452
