28
Coordinates from ORCA-job ./opt_b97-3c_parallel
N         -2.64911       -3.27828        0.06439
C         -2.10055       -2.27744        0.06722
C         -1.45036       -0.99612        0.04801
C         -2.39174       -0.03249       -0.24440
N         -2.40924        1.30608       -0.16530
C         -1.29413        2.08185        0.12515
N         -1.93508        2.99082        0.16129
H         -2.79687        3.52872        0.03583
H         -1.27771        3.67581        0.54728
C          0.11928        1.74875        0.11515
C          0.95013        2.91809        0.17592
N          1.57632        3.87049        0.23471
C          0.70290        0.39768        0.09486
C          2.17890        0.35387       -0.03694
C          2.98907       -0.75204       -0.29726
N          2.82313       -2.08495       -0.41060
C          1.61091       -2.56860        0.01304
C          0.62676       -1.96167        0.71587
C         -0.02816       -0.84917        0.28061
H          0.37302       -2.36815        1.69410
H          1.68358       -3.66376       -0.08273
N          4.06380       -0.84178       -0.55009
H          4.77188       -1.54283       -0.31581
H          4.55592       -0.17210       -1.14565
H          2.71497        1.29479       -0.07846
N         -3.46728        0.14005       -0.49185
H         -4.26415        0.62776       -0.90469
H         -3.78309       -0.83306       -0.44259
