26
Coordinates from ORCA-job ./opt_b97-3c_parallel
N         -5.49020        0.73557        0.43834
C         -4.36765        0.53703        0.36369
C         -2.96732        0.28721        0.22924
C         -2.28772        1.43387       -0.08074
N         -1.02053        1.77337       -0.32741
C          0.02348        0.87275       -0.30040
C          1.01408        1.67282       -0.75998
C          2.04052        1.76306        0.11821
N          2.97302        0.75494        0.25978
C          2.68180       -0.56729       -0.08795
N          3.75625       -0.84380       -0.06168
H          3.66620       -1.81270       -0.37639
H          4.75048       -0.72814        0.14200
C          1.38306       -1.23586       -0.16496
C          1.47270       -2.66361       -0.26423
N          1.59872       -3.79497       -0.34529
C          0.09081       -0.54560       -0.04490
C         -1.04378       -1.40081        0.26668
C         -2.42213       -1.02236        0.40195
H         -3.12180       -1.81584        0.65166
H         -0.88397       -2.45671        0.45375
N          2.37812        2.75142        0.48338
H          1.55212        3.32390        0.67117
H          3.17556        3.33822        0.73491
H          1.15652        1.84200       -1.82744
H         -2.70711        2.44212       -0.22612
