23
Coordinates from ORCA-job ./opt_b97-3c_parallel
N          4.46925        0.80446       -0.15763
C          3.38945        0.43778       -0.06881
C          2.02615       -0.03248        0.00415
C          0.90993        0.81504       -0.04161
N          1.17530        1.89687       -0.12967
H          0.52274        2.20393       -0.84857
H          2.08378        2.28720       -0.37509
C         -0.51987        0.48563        0.02409
C         -1.34656        1.59987        0.24175
N         -2.69160        1.68056        0.58647
C         -3.53464        0.64206        0.28049
C         -3.32172       -0.20266       -0.75261
C         -2.42541       -1.12097       -0.32205
C         -1.03441       -0.87685       -0.04186
C         -0.36270       -2.06745        0.07266
N          0.96699       -2.35002        0.24620
C          2.00140       -1.44764        0.22257
H          2.71568       -2.27527        0.34603
H         -0.47609       -3.16194        0.07689
H         -2.75520       -2.15655       -0.33378
H         -4.12994       -0.47816       -1.42555
H         -4.50899        0.96260        0.67869
H         -1.30615        2.68261        0.43435
