26
Coordinates from ORCA-job ./opt_b97-3c_parallel
N          3.53280        3.06329       -0.21016
C          3.00664        2.05564       -0.08356
C          2.31132        0.80730        0.04532
C          3.30979       -0.07024       -0.35502
N          3.40032       -1.39404       -0.57369
C          2.32957       -2.11595       -0.11433
C          1.33169       -1.73750        0.71558
C          0.41354       -0.79977        0.34515
C          0.87184        0.57256        0.22251
C          0.13270        1.73397        0.34806
C         -1.28010        1.90014        0.43328
C         -2.24395        0.96512        0.12800
C         -3.48812        1.69936        0.10216
N         -4.48712        2.25580        0.06486
C         -2.10864       -0.44769       -0.16585
C         -0.93944       -1.27810        0.08772
C         -1.11833       -2.71309        0.03113
N         -1.24688       -3.84646       -0.04530
N         -3.07727       -0.91606       -0.45363
H         -3.92406       -0.42127       -0.72904
H         -3.15588       -1.86044       -0.82712
H         -1.57020        2.93440        0.62137
H          0.64942        2.68325        0.42757
H          1.27831       -2.17073        1.71197
H          2.50061       -3.18540       -0.30894
H          4.35492       -0.19249       -0.67840
