30
Coordinates from ORCA-job ./opt_b97-3c_parallel
N         -1.31560       -3.44590        1.38796
C         -1.45982       -2.38089        1.00210
C         -1.62481       -1.02453        0.56082
C         -0.58368       -0.25453        0.00399
C         -0.67098        1.18219       -0.26615
N         -1.84106        1.76941       -0.63613
C         -3.02868        1.06102       -0.62315
N         -3.61164        1.84697       -1.13950
H         -4.61688        1.67316       -1.13534
H         -3.46191        2.58545       -1.82734
C         -3.21974        0.86188        0.71161
C         -2.87425       -0.42604        0.95521
H         -3.58680       -1.07278        1.46273
H         -4.05316        1.31314        1.25128
C          0.39504        2.05093       -0.10827
C          1.70579        1.71632        0.42278
C          2.33570        0.48495        0.27376
C          3.70843        0.55526        0.73786
N          4.82787        0.64452        0.95004
C          1.83858       -0.60442       -0.43139
C          0.51133       -0.95312       -0.65804
C          0.10681       -2.07815       -1.47862
N         -0.33907       -2.82659       -2.21792
N          2.58320       -1.35192       -0.79023
H          3.59411       -1.22299       -0.74433
H          2.43448       -2.26908       -1.21005
N          2.05103        2.70742        0.79835
H          1.82254        3.62011        1.19095
H          3.05620        2.59516        0.93179
H          0.13832        3.11190       -0.21084
