29
Coordinates from ORCA-job ./opt_b97-3c_parallel
N          5.27228        0.62058        0.46325
C          4.22139        0.24477        0.22181
C          2.91064       -0.26213       -0.05198
C          1.93107        0.70775       -0.12194
C          0.53733        0.67258       -0.27213
C         -0.02939        1.94133       -0.42938
N          0.45398        2.92830       -0.58959
H          0.22503        3.85501       -0.23063
H          1.11823        3.07414       -1.34882
C         -1.40108        2.41005       -0.45371
C         -2.52025        1.69705       -0.13778
C         -2.66536        0.29479        0.09627
C         -4.04052       -0.01254        0.45095
N         -5.10848       -0.28813        0.74741
C         -1.63556       -0.64052       -0.10266
N         -2.08983       -1.66064       -0.02190
H         -2.89689       -1.69997       -0.64776
H         -2.47350       -1.67520        0.92534
C         -0.23685       -0.57137       -0.29843
C          0.40453       -1.79366       -0.54228
N          1.62657       -2.34090       -0.60976
C          2.78459       -1.65194       -0.31826
H          3.66727       -2.31066       -0.32417
N          0.38372       -2.89073       -0.72578
H          0.17782       -3.42957       -1.56783
H         -0.50093       -2.82247       -0.22065
H         -3.44015        2.27492       -0.06786
H         -1.63667        3.46927       -0.62648
H          2.35963        1.69934        0.00769
