26
Coordinates from ORCA-job ./opt_b97-3c_parallel
N          2.86765        3.23346       -0.73550
C          2.57118        2.15582       -0.49263
C          2.21798        0.79005       -0.22222
C          3.42651       -0.00016       -0.04393
N          3.54051       -1.28119        0.35402
C          2.54786       -2.16729        0.34710
N          1.48370       -1.95442       -0.33822
C          0.58676       -1.04893       -0.13273
C         -0.57242       -1.81467       -0.08380
C         -1.92487       -1.30361        0.00899
C         -2.33736        0.01938        0.10570
C         -3.77700        0.17231        0.18272
N         -4.91129        0.30962        0.21532
C         -1.49254        1.19563        0.14252
C         -0.11428        1.33851        0.04493
C          0.89539        0.30108       -0.10079
H          0.26071        2.35854        0.11098
N         -1.93459        2.21031        0.25211
H         -2.95006        2.28469        0.28806
H         -1.56605        3.05226        0.69042
N         -2.54634       -2.22826       -0.01998
H         -2.36065       -3.10150       -0.50976
H         -3.53588       -2.02606       -0.15444
H         -0.46941       -2.91070       -0.13894
H          3.10148       -3.03287        0.74163
H          4.48718        0.29354       -0.04462
