31
Coordinates from ORCA-job ./opt_b97-3c_parallel
N         -5.86458       -0.36328        0.66142
C         -4.72668       -0.42676        0.58031
C         -3.30421       -0.45594        0.43906
C         -2.81518        0.55504       -0.34750
N         -1.60194        1.05250       -0.60061
C         -0.37016        0.51373       -0.21266
C         -0.14357       -0.85061        0.21699
C          0.99019       -1.57224       -0.34818
C          0.75954       -2.91950       -0.83806
N          0.53762       -3.97196       -1.22357
C          2.33144       -0.99088       -0.38670
C          2.71698        0.13449        0.34488
C          4.10121        0.17066        0.80513
N          5.17522        0.49814        0.58667
C          1.89769        1.33974        0.44764
C          0.68580        1.51962       -0.22581
C          0.33739        2.88431       -0.58533
N          0.00833        3.94334       -0.86149
N          2.41646        2.22002        0.90299
H          2.11329        3.16282        1.14510
H          3.43671        2.24633        0.91135
N          3.09715       -1.68885       -0.80377
H          3.08717       -2.67628       -1.05894
H          4.06653       -1.38378       -0.89362
C         -1.14978       -1.75108        0.76111
C         -2.53291       -1.49630        1.03609
H         -3.07617       -2.26964        1.57335
H         -0.81259       -2.72103        1.11821
N         -3.06688        1.45018       -0.95381
H         -4.07551        1.29129       -0.94971
H         -2.93033        2.30978       -1.48808
