24
Coordinates from ORCA-job ./opt_b97-3c_parallel
N          1.59608        2.11459       -0.44948
C          1.10220        1.13108       -0.28961
N          2.45012        0.82618       -0.41685
C          2.95927       -0.40472       -0.27598
C          2.46106       -1.65748       -0.05509
C          1.07479       -1.98467        0.05690
C         -0.00719       -1.11702        0.04537
C         -1.23054       -1.89415        0.09858
C         -2.49278       -1.46178       -0.13336
C         -2.95407       -0.34585        0.46846
N         -2.45538        0.93676        0.55512
C         -1.16016        1.11529        0.21139
N         -1.58605        2.13873        0.32159
H         -1.69953        2.58703        1.23524
H         -2.18499        2.67750       -0.31089
C         -0.05382        0.28361       -0.02466
H         -3.98715       -0.62419        0.73270
H         -3.14001       -2.02252       -0.80688
H         -1.14624       -2.97333        0.20726
H          0.92181       -3.05704        0.15857
H          3.14585       -2.50054       -0.00034
H          4.05150       -0.52866       -0.35770
H          1.76897        2.39556       -1.41812
H          2.18529        2.73449        0.11393
