26
Coordinates from ORCA-job ./opt_b97-3c_parallel
N         -5.67562       -0.23454        0.30693
C         -4.54696       -0.37853        0.21130
C         -3.14101       -0.60058        0.10581
C         -2.51851       -1.75384        0.68164
N         -1.19671       -2.00318        0.56641
C         -0.15423       -1.20947        0.22345
N          0.89381       -1.95932        0.37765
C          2.03486       -1.90404       -0.23512
C          2.78430       -0.68284       -0.25689
C          3.98375       -0.58046       -1.02380
N          4.92998       -0.52586       -1.66219
C          2.31679        0.41539        0.41033
N          2.90140        0.48235        1.62141
H          2.79875        1.33053        2.17980
H          3.87567        0.19475        1.72293
C          1.09676        0.96104        0.10852
C          1.33701        2.35848       -0.09659
N          1.55347        3.47192       -0.22977
C         -0.16985        0.23760        0.02888
C         -1.40463        0.90824       -0.31261
C         -1.65122        2.29846       -0.54481
N         -1.88240        3.39842       -0.74714
C         -2.52081        0.26307       -0.73309
H         -2.79897        0.28427       -1.78719
H          2.39479       -2.79152       -0.77775
H         -3.19143       -2.47906        1.16598
