30
Coordinates from ORCA-job ./opt_b97-3c_parallel
N         -3.83217       -2.20782       -1.40694
C         -3.77764       -2.01251       -0.28171
C         -2.80267       -0.99580       -0.01667
C         -1.41692       -1.34266        0.13011
C         -0.29615       -0.50564        0.14224
C          0.97740       -1.22615        0.32058
N          0.98276       -2.24563        0.76869
H          1.77473       -2.88127        0.88653
H          0.21157       -2.70442        1.25558
C          2.32677       -0.82409       -0.10211
C          3.47457       -1.69081        0.03868
N          4.41270       -2.33283        0.13845
C          2.60516        0.37171       -0.85571
N          1.96049        1.59529       -0.73489
C          0.74737        1.76348       -0.18022
N          1.07276        2.82244       -0.29815
H          0.94681        3.41492       -1.12545
H          1.60009        3.41143        0.35560
C         -0.33528        0.94838        0.11781
C         -1.49173        1.73364        0.53199
N         -2.83947        1.41547        0.53297
C         -3.41578        0.21537        0.16838
H         -4.50311        0.39710        0.13823
N         -2.04520        2.66528        0.78577
H         -2.66245        3.39206        0.40940
H         -2.16017        2.74153        1.80205
N          3.47801        0.82507       -1.37399
H          3.68990        0.83281       -2.37591
H          4.32003        0.42524       -0.94784
H         -1.27294       -2.41970        0.07263
