28
Coordinates from ORCA-job ./opt_b97-3c_parallel
N         -2.12442       -2.63093        1.29646
C         -1.86874       -1.63398        0.80392
C         -1.55644       -0.35031        0.24279
C         -2.73727        0.49129        0.21996
N         -2.89144        1.81191       -0.14950
C         -1.85693        2.60228       -0.44245
C         -0.49342        2.48925       -0.47701
C          0.27883        1.28281       -0.32006
C          1.61370        1.43982       -0.54111
C          2.51933        1.11692        0.42018
N          2.93891       -0.20016        0.31375
C          2.09599       -1.20277       -0.18575
N          3.12246       -1.64850       -0.19220
H          2.85090       -2.27662       -0.95525
H          3.98549       -2.06019        0.16863
C          0.68972       -1.14984       -0.29177
C          0.55056       -2.54884       -0.61745
N          0.15642       -2.64074       -1.68851
C         -0.22916        0.00132       -0.08233
N          3.31469        1.69290        0.93411
H          4.22643        1.42653        1.31419
H          3.21377        2.67590        1.19717
H          1.95547        1.90805       -1.46571
H          0.07234        3.38596       -0.72393
H         -2.39517        3.54256       -0.64680
N         -3.83124        0.53021        0.41048
H         -4.71174        1.02508        0.24953
H         -4.10706       -0.33518        0.87958
