32
Coordinates from ORCA-job ./opt_b97-3c_parallel
N         -4.43181       -0.76136       -1.01559
C         -3.41563       -0.44265       -0.60502
C         -2.11069       -0.03412       -0.12649
C         -2.08392        1.05494        0.82586
N         -2.93556        1.56832        1.31695
H         -3.24449        2.30703        1.94604
H         -3.75392        0.98669        1.13807
C         -0.97396        1.97354        0.95549
C          0.21609        1.87014        0.14799
N          0.70373        2.86643        0.08839
H          1.35278        3.18242        0.81013
H         -0.02896        3.57660        0.04554
C          0.91078        0.61353       -0.03900
C          2.13746        0.76356       -0.79401
N          3.34550        0.17551       -0.45766
C          3.39872       -0.84245        0.41419
C          2.47813       -1.76182        0.84437
C          1.12582       -1.76263        0.52838
N          0.81097       -2.77784        0.85094
H          1.05359       -3.67610        1.26874
H         -0.20523       -2.70734        0.90617
C          0.31991       -0.69720        0.10093
C         -1.00321       -0.85985       -0.32379
N         -1.14169       -1.80102       -0.90729
H         -0.56884       -2.63814       -1.00803
H         -1.99697       -1.97623       -1.43546
H          2.93358       -2.59134        1.39778
H          4.41138       -1.15148        0.71565
N          2.91164        1.34513       -1.32980
H          2.12082        1.98818       -1.25459
H          3.25325        1.42494       -2.28709
H         -1.15465        2.92598        1.46974
