22
Coordinates from ORCA-job ./opt_b97-3c_parallel
N         -4.55765       -0.87168        0.33728
C         -3.41560       -0.91950        0.34726
C         -2.41318       -0.50080        0.12347
C         -2.02056        0.75518       -0.25871
N         -0.89261        1.47918       -0.08269
C          0.30502        0.95426        0.29551
N          1.10285        1.96847        0.81143
C          2.46879        1.84377        0.66554
N          3.39393        1.11845       -0.04787
C          2.83448       -0.01703       -0.58907
C          1.76473       -0.83700       -0.35489
C          2.23058       -1.81371       -0.59934
N          2.06328       -2.81958       -1.12305
C          0.59867       -0.39538        0.13970
N         -0.35328       -1.20537        0.48902
C         -1.58175       -1.25747        0.90501
H         -1.51926       -2.05135        1.66652
H          3.83263        0.00549       -1.06023
H          2.94926        2.71059        1.14754
N         -2.44127        1.63645       -0.78259
H         -2.42717        2.44773       -1.39897
H         -3.27457        1.10646       -1.04460
