28
Coordinates from ORCA-job ./opt_b97-3c_parallel
N          2.70270        3.69608       -0.86539
C          2.64142        2.98212        0.02673
C          2.01419        1.69130        0.04695
C          2.90204        0.64839        0.02001
C          2.61326       -0.75336        0.06731
C          3.83719       -1.52896        0.14562
N          4.78312       -2.16503        0.22403
C          1.32105       -1.29785       -0.03035
N          1.38919       -2.41520       -0.04920
H          2.09404       -2.92321       -0.58491
H          1.59124       -2.60447        0.93262
C          0.01672       -0.76509       -0.10090
C         -0.99226       -1.67986       -0.37890
N         -2.30979       -1.78987       -0.56677
C         -3.19751       -0.76936       -0.33803
N         -3.99696       -1.48081       -0.61879
H         -4.27938       -1.80962       -1.54207
H         -4.85459       -1.18079       -0.15389
C         -2.94156        0.54218        0.17334
C         -4.08910        1.34043        0.47557
N         -5.03036        1.93648        0.72344
C         -1.65027        1.16588        0.29715
C         -0.30436        0.64022        0.10090
C          0.58947        1.69784        0.17764
H          0.19277        2.70531        0.28060
H         -1.73148        2.21217        0.58449
H         -1.10836       -2.75011       -0.61169
H          3.96398        0.89309       -0.00141
