22
Coordinates from ORCA-job ./opt_b97-3c_parallel
N         -3.53966       -0.42527        0.01328
C         -2.44913       -0.24365        0.04310
N         -2.08119       -1.55797        0.06145
C         -0.72211       -1.80896        0.07638
C          0.31738       -0.89163        0.04935
C          1.55833       -1.64510        0.03821
N          2.90307       -1.29923        0.00004
C          3.10821        0.02016       -0.02485
N          2.80447        1.27708       -0.03427
C          1.52024        1.21036       -0.00087
C          0.33587        0.51046        0.03424
C         -0.79064        1.43208        0.04763
N         -2.13558        1.09148        0.03920
N         -1.03934        2.51364        0.04803
H         -0.12174        2.91472       -0.15593
H         -1.61811        3.31548        0.30825
H          2.00435        2.20123       -0.02323
H          4.20623       -0.06699       -0.06189
H          2.15939       -2.56792        0.03884
H         -0.74383       -2.91052        0.09198
H         -4.32278        0.17632        0.27107
H         -3.97116       -1.27999       -0.34367
