26
Coordinates from ORCA-job ./opt_b97-3c_parallel
N          4.78117        1.34406       -0.71190
C          3.72412        1.00375       -0.44480
C          2.42483        0.51702       -0.09625
C          1.78313        1.43459        0.68750
C          0.46748        1.50506        0.83201
C         -0.42259        0.65115        0.23627
N         -1.53184        1.32042        0.13528
C         -2.81738        1.21840        0.00244
N         -2.94537        1.83147       -0.90372
H         -2.74548        2.82879       -0.97449
H         -3.87101        1.70009       -1.31116
C         -3.39785        0.04269        0.37878
C         -2.68919       -1.11752        0.24448
N         -1.42963       -1.57401        0.12687
C         -0.32022       -0.79557        0.15369
N          0.88607       -1.47223       -0.01339
C          2.12626       -0.88333       -0.24321
N          2.61734       -1.80110       -0.62230
H          3.60207       -1.66582       -0.38223
H          2.62198       -2.47251       -1.39233
N         -2.97538       -2.18228        0.21340
H         -2.85175       -3.11660        0.60380
H         -3.98268       -2.03658        0.15047
H         -4.41234        0.03227        0.77128
H          0.09610        2.27561        1.51051
H          2.37632        2.15697        1.25167
