29
Coordinates from ORCA-job ./opt_b97-3c_parallel
N         -4.64339       -1.00043       -0.05332
C         -3.55100       -0.67319       -0.05120
C         -2.18376       -0.20660       -0.05001
C         -2.26556        1.14464       -0.29551
N         -1.39092        2.14696       -0.22313
C         -0.04957        1.97127        0.06841
C          0.84160        0.82308        0.07866
C          2.15633        1.26432        0.24481
N          2.52248        2.29158        0.45942
H          3.36375        2.80605        0.19217
H          2.28176        2.63075        1.39107
C          3.42206        0.55966        0.14611
C          3.59576       -0.75813       -0.18040
N          2.67380       -1.77254       -0.31806
C          1.30249       -1.69824       -0.19370
N          1.54922       -2.77185       -0.33338
H          2.00873       -3.55044       -0.81218
H          0.61132       -3.11043       -0.11661
C          0.40056       -0.56478       -0.02256
C         -0.98757       -1.02503        0.09514
N         -1.26738       -2.09260        0.25054
H         -2.11303       -2.61874        0.01734
H         -1.17519       -2.17052        1.26649
H          4.63251       -1.11685       -0.28468
H          4.36749        1.09869        0.27628
H          0.02422        3.06965        0.10578
N         -2.86614        2.05835       -0.50748
H         -3.80198        1.81446       -0.17608
H         -3.02472        2.72049       -1.27012
