22
Coordinates from ORCA-job ./opt_b97-3c_parallel
N         -4.21922       -0.64497        0.10286
C         -3.08007       -0.69239        0.01690
C         -1.64540       -0.77335       -0.05172
C         -1.32647       -2.17836       -0.06411
N         -0.15223       -2.88814       -0.12807
C          1.01390       -2.26448       -0.07384
C          1.41122       -0.96709        0.05145
C          2.83945       -1.11359        0.13390
N          3.97194       -1.26233        0.19467
C          0.62887        0.25230        0.04697
N          1.53603        1.29440        0.20104
C          1.37114        2.65658        0.23711
C          0.25494        3.40464        0.01288
C         -1.04103        2.87803       -0.24117
C         -1.43178        1.55996       -0.23398
C         -0.76539        0.33602       -0.07266
H         -2.49449        1.55026       -0.43082
H         -1.81274        3.62113       -0.41846
H          0.35276        4.48558        0.01904
H          2.39091        3.02557        0.42341
H          1.32869       -3.31803       -0.13116
H         -1.88889       -3.12450       -0.06499
