26
Coordinates from ORCA-job ./opt_b97-3c_parallel
N         -0.63589       -4.35237       -0.41931
C         -0.60862       -3.21891       -0.27088
C         -0.59022       -1.77658       -0.12674
C         -1.92510       -1.42853       -0.24644
C         -2.48748       -0.12534        0.00587
C         -3.90869       -0.40656       -0.02882
N         -5.02729       -0.49338        0.19108
C         -1.80860        1.06188        0.23825
C         -0.39272        1.36156        0.08419
C         -0.04382        2.76329        0.21705
N          0.18956        3.87446        0.35326
C          0.65240        0.43076       -0.03217
C          0.61567       -0.97099        0.04616
N          1.62734       -1.86121        0.17621
C          2.90425       -1.51092        0.31882
N          3.83873       -0.62264        0.38764
C          3.14380        0.38381       -0.03613
C          1.96107        1.04791       -0.30849
C          2.81327        2.15353       -0.66107
N          2.77297        2.73406       -1.64606
H          4.25042        0.36681       -0.00747
H          3.32418       -2.52189        0.43565
N         -2.55337        1.85991        0.46342
H         -3.53063        1.75810        0.73406
H         -2.20053        2.67598        0.96175
H         -2.64212       -2.23275       -0.45518
