20
Coordinates from ORCA-job ./opt_b97-3c_parallel
N         -2.14533       -3.08624       -0.70287
C         -1.82588       -2.01020       -0.49328
C         -1.39315       -0.67152       -0.21145
C         -2.46826        0.26433       -0.00296
C         -2.31847        1.47071        0.59457
C         -1.57223        2.22654       -0.23955
N         -0.28558        2.25427       -0.57819
C          0.43711        1.10700       -0.26161
N          1.74252        1.47160       -0.29376
C          2.70785        0.52348       -0.03528
N          3.36575       -0.55287        0.24016
C          2.22993       -1.16539        0.19309
C          0.88358       -1.40928        0.09047
C         -0.04549       -0.29329       -0.08503
H          0.54414       -2.43661        0.18083
H          2.76615       -2.11734        0.33777
H          3.68720        1.02412       -0.10213
H         -2.00841        3.18669       -0.55620
H         -3.12697        1.91053        1.17519
H         -3.47716       -0.11790       -0.14503
