26
Coordinates from ORCA-job ./opt_b97-3c_parallel
N          3.79276        2.11216       -1.11001
C          3.00112        1.37286       -0.74770
C          2.04380        0.40958       -0.28267
C          2.58652       -0.72259        0.42285
C          1.82975       -1.59541        1.13603
C          1.23545       -2.19195        0.07081
N          0.09195       -1.73975       -0.55114
C         -0.34377       -0.46985       -0.31147
C          0.66191        0.63699       -0.34497
N          0.27402        1.85827       -0.78481
C         -0.89422        2.38056       -0.28905
C         -1.65529        1.95518        0.74829
C         -2.34849        0.95952        0.12680
C         -1.73213       -0.25251       -0.37380
C         -2.58623       -1.34695       -0.76167
N         -3.22581       -2.24680       -1.05617
N         -3.43334        1.18825        0.20303
H         -3.87836        2.05578       -0.09496
H         -4.18041        0.58808        0.55094
H         -2.09138        2.66056        1.45929
H         -1.04468        3.36489       -0.75931
N          1.12548       -3.17247       -0.43077
H          1.98837       -3.52519       -0.84559
H          0.42609       -3.90114       -0.57966
H          2.26101       -2.17974        1.94700
H          3.67082       -0.79025        0.47856
