25
Coordinates from ORCA-job ./opt_b97-3c_parallel
N          4.57907        1.14028        0.66601
C          3.56588        0.71849        0.34596
C          2.28485        0.19962       -0.01913
C          2.31052       -1.02472       -0.66893
C          1.20508       -1.95240       -0.82691
C         -0.10343       -1.78096       -0.37615
N         -0.57791       -2.78218       -0.35612
H         -1.55146       -2.60383       -0.59861
H         -0.36652       -3.72630       -0.67334
C         -0.68910       -0.49479       -0.07640
C         -2.02937       -0.59311        0.48392
N         -2.83964        0.48211        0.60680
C         -2.52662        1.70164        0.13798
N         -1.63107        2.37731       -0.50787
C         -0.60971        1.76039       -1.01041
C         -0.07128        0.67128       -0.39021
C          1.09554        0.95045        0.23547
H          1.21189        1.88036        0.78626
H         -0.37065        2.82717       -1.13655
H         -3.44918        2.22661        0.42733
N         -2.93878       -1.07295        0.88635
H         -3.45978       -1.01388        1.75922
H         -2.05572       -1.53194        1.10132
H          1.52598       -2.92296       -1.21024
H          3.27845       -1.43030       -0.95163
