24
Coordinates from ORCA-job ./opt_b97-3c_parallel
N         -5.81241       -0.11712        0.03117
C         -4.67138       -0.17405       -0.01803
C         -3.24366       -0.24856       -0.03913
C         -2.63306        0.96333       -0.21841
C         -1.23122        1.26279       -0.20879
C         -0.09542        0.45499       -0.09709
C         -0.14003       -1.00497       -0.04478
N         -1.26942       -1.80376        0.05791
C         -2.60692       -1.50543        0.11651
H         -3.13132       -2.46408        0.24685
C          0.91762       -1.90148       -0.07407
C          2.32859       -1.68795       -0.12542
C          2.99483       -0.49245       -0.07252
C          4.41348       -0.68931       -0.07057
N          5.54831       -0.82452       -0.04477
C          2.45221        0.82371       -0.00604
C          1.10639        1.17097       -0.04918
C          1.28480        2.60447       -0.00274
N          1.27630        3.71121        0.28442
H          3.26190        1.56016        0.04978
H          2.91211       -2.60578       -0.16834
H          0.68361       -2.96566       -0.06926
H         -1.10606        2.33210       -0.32438
H         -3.27005        1.83679       -0.34045
