27
Coordinates from ORCA-job ./opt_b97-3c_parallel
N          4.73375        0.59595       -0.62068
C          3.61766        0.43823       -0.43926
C          2.22645        0.19926       -0.18214
C          1.54529        1.24754        0.44920
N          1.87820        2.22024        0.86476
H          1.59456        3.19917        0.89101
H          2.88103        2.21621        1.04972
C          0.10734        1.34210        0.63450
C         -0.68332        0.44839       -0.15753
C         -0.49276       -0.87581        0.33619
N          0.55072       -1.63609        0.00277
C          1.73346       -1.14891       -0.41584
N          1.98993       -2.16979       -0.74802
H          2.98253       -1.94073       -0.78949
H          1.88649       -3.07628       -1.20243
N         -1.40488       -1.69407        0.75256
C         -2.55461       -1.18171        1.05921
C         -3.49046       -0.50596        0.32863
C         -3.17680        0.54309       -0.43994
C         -1.91342        1.07282       -0.58407
H         -1.82350        2.03894       -1.07760
N         -4.08658        1.20634       -1.16896
H         -5.08247        1.10263       -0.97781
H         -3.92563        2.17278       -1.45441
H         -4.52470       -0.84242        0.37340
H         -3.00271       -1.83230        1.82728
H         -0.36682        2.17508        1.16201
