26
Coordinates from ORCA-job ./opt_b97-3c_parallel
N         -5.00834       -1.06577       -0.12464
C         -3.88678       -0.85698       -0.09339
C         -2.49310       -0.53441       -0.05430
C         -2.08786        0.82137        0.10633
N         -0.81625        1.34447        0.06370
C          0.43479        0.74421       -0.03073
C          1.34141        1.79216       -0.10565
C          2.77005        1.79197       -0.17170
C          3.62108        0.72785       -0.07944
C          3.24639       -0.64584        0.05182
C          1.99472       -1.22126        0.03723
C          0.71227       -0.68825       -0.02413
C         -0.25380       -1.69058       -0.08195
C         -1.68459       -1.63666       -0.14910
H         -2.15949       -2.61166       -0.24371
H          0.08441       -2.72305       -0.11758
H          2.04321       -2.30875        0.09356
N          4.12964       -1.30552        0.13260
H          4.16641       -2.23157        0.55610
H          5.09226       -0.97381        0.09018
H          4.68812        0.94929       -0.09990
H          3.22976        2.77171       -0.26138
H          0.94737        2.80683       -0.13953
N         -2.48625        1.84547        0.22625
H         -2.39557        2.71661        0.74801
H         -3.48674        1.65164        0.17515
