29
Coordinates from ORCA-job ./opt_b97-3c_parallel
N         -5.26927       -0.28131        0.30967
C         -4.13732       -0.13632        0.25436
C         -2.71381        0.03786        0.14103
C         -1.92444       -1.13017        0.39527
C         -0.53600       -1.34079        0.10040
C         -0.10498       -2.70436        0.21769
N          0.30483       -3.76577        0.31884
C          0.44746       -0.34438       -0.28386
C          1.62125       -0.81952       -0.78660
C          2.75908       -0.81175       -0.05524
N          3.40971        0.35048        0.29925
C          2.78775        1.59002        0.13909
N          3.65766        2.24511        0.33347
H          4.63434        2.46384        0.13018
H          3.32766        3.01485        0.91804
C          1.44719        1.90003       -0.09251
C          0.30148        1.09254       -0.14525
C         -0.88864        1.80297       -0.14556
C         -2.24857        1.30873       -0.15271
N         -2.86228        2.22175       -0.31738
H         -2.84913        3.21846       -0.52993
H         -3.83520        1.93203       -0.41755
H         -0.77295        2.89047       -0.19154
H          1.27108        2.97341       -0.11173
N          3.43004       -1.68024        0.08276
H          4.39534       -1.85667       -0.20097
H          3.02659       -2.60421        0.25335
H          1.62672       -1.24394       -1.79080
H         -2.48961       -2.01737        0.67452
