30
Coordinates from ORCA-job ./opt_b97-3c_parallel
N          4.29069        2.00775       -0.61711
C          3.35973        1.35262       -0.53447
C          2.22696        0.48072       -0.41630
C          2.46041       -0.93028       -0.37916
N          1.50695       -1.92809       -0.28304
C          0.19321       -1.69464       -0.12569
N          0.35341       -2.79437       -0.11558
H          0.05697       -3.43982       -0.85011
H         -0.43724       -2.76926        0.53427
C         -0.69094       -0.62418       -0.01930
C         -2.03766       -1.10774        0.29621
N         -2.36126       -2.15505        0.49467
H         -2.72921       -2.16990        1.44836
H         -3.14136       -2.42671       -0.10736
C         -3.22893       -0.41737        0.46540
C         -3.47508        0.91199        0.30155
C         -2.64695        1.93872       -0.04177
C         -1.21141        1.84878       -0.24820
N         -1.04619        2.92757       -0.44965
H         -1.35438        3.72510        0.10698
H         -1.01050        3.25222       -1.41551
C         -0.30856        0.77699       -0.20674
C          1.02674        1.16769       -0.37556
H          1.18689        2.24026       -0.47000
H         -3.18253        2.89532       -0.11696
H         -4.51027        1.20358        0.45913
H         -4.15179       -0.94526        0.74047
N          3.35519       -1.58537       -0.42446
H          4.04737       -1.01531        0.06570
H          3.90012       -2.24471       -0.98082
