28
Coordinates from ORCA-job ./opt_b97-3c_parallel
N         -5.21851       -0.53764        1.37993
C         -4.23964       -0.23736        0.87201
C         -2.99596        0.13439        0.27608
C         -2.91841        1.50523        0.15830
N         -2.14419        2.28982       -0.59915
C         -1.20942        1.58478       -1.31715
C         -0.21129        0.85994       -0.56863
C          1.01108        1.48902       -0.39349
N          1.15729        2.56908       -0.61196
H          1.92495        3.18115       -0.33992
H          0.29493        3.06362       -0.38869
C          2.18983        0.94188        0.23867
C          3.38364        1.63592        0.66956
N          3.90449        2.31565        1.42683
C          2.53075       -0.39354        0.37173
C          1.79290       -1.57134       -0.00900
C          2.58426       -2.77940        0.03602
N          3.22648       -3.72524        0.04315
C          0.34750       -1.62354       -0.22389
N         -0.05829       -2.65515       -0.31429
H          0.47755       -3.50398       -0.49015
H         -0.72935       -2.57301       -1.07586
C         -0.58234       -0.50076       -0.27495
C         -1.99797       -0.84144       -0.10146
H         -2.29149       -1.87187        0.07465
H          3.53229       -0.65311        0.72299
H         -1.15408        2.60768       -1.72009
H         -3.46258        2.43786        0.37071
