29
Coordinates from ORCA-job ./opt_b97-3c_parallel
N         -5.19713       -1.66630       -0.45078
C         -4.25923       -1.06046       -0.20821
C         -3.06214       -0.32124        0.05887
C         -1.94722       -1.09588       -0.17463
C         -0.55080       -0.74173       -0.08674
C          0.20679       -1.86846       -0.32962
N          1.41839       -2.15053        0.26936
C          2.36974       -1.18760        0.51896
N          2.92311       -2.03627        0.96590
H          3.85226       -1.63769        0.82393
H          3.01932       -2.70023        1.73406
C          2.45327        0.00201       -0.27881
C          3.80704        0.31884       -0.66750
N          4.89354        0.52365       -0.95390
C          1.34588        0.84603       -0.42184
N          1.61634        1.81629       -0.90054
H          2.25260        2.21287       -1.59294
H          0.75213        2.35428       -0.97355
C         -0.00817        0.59375        0.09681
C         -0.70826        1.71273        0.56252
N         -0.34622        2.71969        0.85931
H          0.62718        2.99014        0.72673
H         -0.78632        3.49154        1.35953
C         -2.10485        1.88796        0.91579
C         -3.16868        0.98691        0.61629
H         -4.17133        1.34780        0.82972
H         -2.47723        2.82747        1.34095
H         -0.07692       -2.92361       -0.46993
H         -2.13845       -2.12780       -0.47078
