26
Coordinates from ORCA-job ./opt_b97-3c_parallel
N         -1.70885       -3.71451        0.12192
C         -1.57191       -2.58330        0.03437
C         -1.36224       -1.16212       -0.04705
C         -2.61347       -0.47224        0.12010
C         -2.87402        0.92349        0.19836
C         -1.90527        1.96272        0.09419
C         -0.55361        1.90020       -0.13784
C          0.31870        0.76527       -0.30544
C          1.58192        1.13407       -0.64754
C          2.62997        0.84173        0.16112
N          3.16172       -0.42352        0.24844
C          2.35628       -1.42155       -0.16715
C          0.98894       -1.57252       -0.35642
C         -0.06428       -0.64424       -0.21517
H          0.75490       -2.61182       -0.55413
H          2.86878       -2.39435       -0.22849
N          3.49202        1.37737        0.59417
H          3.31270        2.02527        1.36124
H          4.50459        1.34569        0.47823
H          1.75842        1.61361       -1.60873
H         -0.04605        2.86077       -0.23001
N         -2.34916        2.97052        0.17696
H         -3.31484        3.03256        0.49828
H         -2.18077        3.80800       -0.37836
H         -3.91674        1.19613        0.35536
H         -3.50164       -1.09004        0.23732
