26
Coordinates from ORCA-job ./opt_b97-3c_parallel
N         -5.43763       -1.01449        0.07391
C         -4.33583       -0.71610        0.02988
C         -2.94232       -0.37911       -0.04972
C         -2.07340       -1.47331       -0.36501
N         -0.74171       -1.47584       -0.47374
C          0.16315       -0.49575       -0.39912
N          1.30658       -1.09647       -0.53691
C          2.48986       -0.90982       -0.04096
N          2.69883       -1.95027        0.26413
H          2.56552       -2.85885        0.70516
H          3.69369       -1.73939        0.34233
C          3.04660        0.41023       -0.03610
C          4.33784        0.68941        0.50742
N          5.37643        0.87883        0.94246
C          2.35653        1.45005       -0.58327
C          1.09231        1.80378       -0.20301
C         -0.06056        0.91565       -0.16396
C         -1.25571        1.55105        0.11505
C         -2.57118        0.94018        0.18273
N         -3.24299        1.78512        0.44314
H         -3.16428        2.72378        0.83389
H         -4.23987        1.56713        0.44598
H         -1.18587        2.62757        0.29643
H          0.91287        2.85519        0.00511
H          2.82583        2.01347       -1.38794
H         -2.41428       -2.50713       -0.53079
