24
Coordinates from ORCA-job ./opt_b97-3c_parallel
N          3.85691        1.77622        1.34748
C          2.98075        1.22490        0.86701
C          1.91813        0.48089        0.26517
C          0.64061        1.09343        0.00171
C         -0.44170        0.48828       -0.57344
C         -1.59891        1.22068       -0.55665
N         -2.82457        1.20122       -0.01031
C         -3.16451        0.16130        0.76925
N         -2.55740       -0.94363        1.07783
C         -1.81859       -1.65168        0.28323
C         -0.64713       -0.88231       -0.05011
C          0.21450       -1.79940       -0.73788
N          1.59650       -1.86301       -0.62284
C          2.25932       -0.82112       -0.07630
N          3.08634       -1.55988       -0.09370
H          3.70422       -1.07908        0.56171
H          3.63951       -2.32179       -0.48542
H         -0.05246       -2.73853       -1.24793
H         -2.49298       -2.52002        0.23003
H         -4.18796        0.34873        1.12919
N         -1.88059        2.12207       -1.12866
H         -1.25497        2.45369       -1.85970
H         -2.74233        2.65837       -1.22937
H          0.55967        2.13175        0.31467
