24
Coordinates from ORCA-job ./opt_b97-3c_parallel
N         -1.50441       -2.38936        0.20042
C         -1.24323       -1.07028        0.10932
C         -2.38218       -0.70070        0.76023
C         -2.89464        0.09872       -0.21573
C         -2.55064        1.41459       -0.21326
C         -1.20018        1.91567       -0.16283
C         -0.05878        1.12087       -0.11226
C          1.12480        1.96190       -0.08248
N          2.49866        1.79593       -0.00224
C          2.86629        0.52482       -0.08866
N          2.33559       -0.62359       -0.30577
C          1.14972       -1.08552       -0.12526
N          1.63794       -2.07831       -0.14579
H          0.69670       -2.13742       -0.52855
H          2.25419       -2.53996       -0.81215
C         -0.08948       -0.34738       -0.03206
H          3.90318        0.16173       -0.03095
H          1.45222        3.01225       -0.07667
H         -1.11282        2.99867       -0.18754
H         -3.33182        2.16657       -0.26357
H         -3.74465       -0.24069       -0.80378
H         -2.39434       -0.42296        1.81067
H         -2.31240       -2.72026        0.72491
H         -0.74333       -3.04742        0.35967
