30
Coordinates from ORCA-job ./opt_b97-3c_parallel
N         -4.06381       -2.43967       -0.45517
C         -3.23564       -1.65657       -0.38709
C         -2.23979       -0.62975       -0.28292
C         -2.67645        0.72486       -0.12183
N         -1.88262        1.85505       -0.04084
C         -0.54067        1.81917        0.00191
N         -0.81244        2.89309        0.08425
H         -0.94312        3.80432        0.52874
H         -0.02301        3.01542       -0.55245
C          0.48421        0.88522       -0.00877
C          1.73375        1.58193        0.24105
C          3.00617        1.09371        0.35809
C          3.45223       -0.18251        0.15802
N          4.54408       -0.27529        0.31147
H          5.09246       -1.08437        0.02259
H          5.07008        0.16925        1.06237
C          2.81345       -1.33299       -0.22661
C          1.37468       -1.45861       -0.40538
N          1.35171       -2.53449       -0.68198
H          1.90340       -3.32053       -0.33766
H          1.17066       -2.72558       -1.66618
C          0.31715       -0.54888       -0.25100
C         -0.95218       -1.12938       -0.37080
H         -0.95704       -2.20621       -0.52931
H          3.47024       -2.20631       -0.36945
H          3.74347        1.85348        0.62426
H          1.66531        2.65071        0.41932
N         -3.65798        1.23587       -0.05199
H         -4.38123        1.73239       -0.57417
H         -4.16487        0.55438        0.51943
