29
Coordinates from ORCA-job ./opt_b97-3c_parallel
N          3.35105        2.22981       -0.91011
C          2.29156        1.89439       -0.64111
C          0.95612        1.44484       -0.33844
C          0.16702        2.40117       -0.95529
C         -1.22857        2.59603       -0.73250
C         -2.01198        1.81799        0.09254
N         -2.92847        2.40711        0.30142
H         -3.17192        3.39567        0.29975
H         -3.58658        1.94535        0.92747
C         -1.81192        0.42296        0.40969
C         -2.84039       -0.23648        1.18376
N         -3.63468       -0.74487        1.83006
C         -0.72021       -0.35514        0.01364
C         -1.03863       -1.66685       -0.32572
C         -0.23326       -2.75537       -0.57899
C          1.11362       -2.95505       -0.12920
C          1.85778       -2.01830        0.54102
C          1.64763       -0.64886        0.61096
C          2.80882       -0.21193        1.34899
N          3.01481        0.24606        2.37773
C          0.58425        0.10798        0.11845
H          2.77905       -2.44920        0.93836
H          1.55348       -3.94381       -0.24671
N         -0.67249       -3.67591       -1.00418
H         -1.61913       -3.66523       -1.37993
H         -0.24177       -4.54093       -1.32508
H         -2.08988       -1.85248       -0.54335
H         -1.60428        3.53378       -1.14713
H          0.61344        3.22083       -1.51992
