29
Coordinates from ORCA-job ./opt_b97-3c_parallel
N          4.17185        1.68539        1.34023
C          3.27748        1.13958        0.88261
C          2.16516        0.42061        0.32473
C          0.86108        0.95243        0.59279
C         -0.24252        0.56224       -0.08982
C         -1.01058        1.59252       -0.55871
N         -2.29106        1.93498       -0.34046
C         -3.04352        1.11414        0.41072
N         -2.84372       -0.05658        0.93892
C         -2.04178       -0.99399        0.53238
N         -2.83863       -1.71432        0.79146
H         -3.37224       -1.93143        1.63078
H         -1.92862       -2.15937        0.89777
C         -0.71898       -0.70710        0.01311
C          0.03466       -1.74426       -0.51345
C          1.38550       -1.68786       -0.85806
C          2.31937       -0.71819       -0.47081
N          3.32461       -1.07025       -0.78674
H          4.11976       -0.53864       -0.43492
H          3.54314       -2.05306       -0.63506
H          1.78019       -2.55831       -1.40036
N         -0.35426       -2.76257       -0.72131
H          0.02323       -3.38691       -1.43180
H         -1.35033       -2.67233       -0.91653
H         -4.07606        1.06737        0.78898
N         -0.95982        2.48358       -1.20876
H         -1.56845        3.10157       -1.74266
H         -0.43304        1.93369       -1.88358
H          0.80989        1.82113        1.24446
