29
Coordinates from ORCA-job ./opt_b97-3c_parallel
N         -4.72467       -2.40474       -0.13824
C         -3.96482       -1.57243        0.04986
C         -2.99958       -0.53014        0.23960
C         -1.72405       -0.95947       -0.07620
C         -0.43566       -0.26381       -0.02357
C          0.64886       -1.15055       -0.18488
N          0.60498       -2.26060       -0.25787
H         -0.08885       -2.69381        0.35156
H          0.97812       -3.01781       -0.83307
C          2.08463       -0.87130       -0.14840
C          3.19644       -1.80188       -0.13565
N          4.10727       -2.49212       -0.11194
C          2.66073        0.37533       -0.18724
N          2.10203        1.58477       -0.29532
C          0.82260        1.98449       -0.23335
N          1.25943        2.99533       -0.37240
H          0.27823        3.22716       -0.53017
H          1.77684        3.78752       -0.75944
C         -0.35181        1.19624        0.10375
C         -1.33988        2.09074        0.49488
C         -2.67520        1.87788        0.94961
C         -3.44279        0.69236        0.81910
H         -4.48775        0.75636        1.11291
H         -3.20511        2.74633        1.33328
H         -1.09426        3.14464        0.59761
N          3.61106        0.95775       -0.20533
H          4.39806        1.30493       -0.75626
H          4.03048        0.30872        0.46482
H         -1.69765       -2.00025       -0.39271
