24
Coordinates from ORCA-job ./opt_b97-3c_parallel
N         -0.53090       -3.54867       -0.35204
C         -1.10139       -2.71749        0.18828
C         -0.95455       -1.61924        0.13560
C         -2.25298       -1.17453        0.09664
N         -3.09815       -0.07897        0.05117
C         -2.40736        1.11664       -0.00706
N         -1.09843        1.59011       -0.05415
C         -0.11680        0.60223        0.00646
N          0.66917        1.75029       -0.14143
C          2.05154        1.54502       -0.14012
N          3.04602        0.57865       -0.00521
C          2.58651       -0.72186        0.18505
N          1.33615       -1.08004        0.18130
C          0.07749       -0.75991        0.11983
N          3.28492       -1.56541        0.34402
H          3.18869       -2.58468        0.31563
H          4.27197       -1.42117        0.57559
N          2.64056        2.47271       -0.28991
H          3.65710        2.56036       -0.19698
H          2.35207        3.40065       -0.61226
N         -3.33263        1.72431       -0.01669
H         -4.14656        1.62171       -0.62957
H         -3.62379        2.42844        0.66677
H         -3.31026       -1.49223        0.09982
