24
Coordinates from ORCA-job ./opt_b97-3c_parallel
N         -2.49031       -2.92967       -0.29819
C         -2.00582       -1.89679       -0.23559
C         -1.45059       -0.57552       -0.12329
C         -0.03802       -0.47025       -0.15506
N          0.67213       -1.62841       -0.23820
C          2.03870       -1.59294       -0.37487
C          3.33004       -1.19569       -0.50138
C          2.91822        0.04678       -0.11344
N          2.00123        1.06791        0.09634
C          0.66745        0.82615       -0.07241
C          0.23994        2.12212       -0.07655
C         -1.06017        2.32796        0.21062
N         -2.31960        1.80665        0.29975
C         -2.47059        0.44635        0.08667
N         -3.56170        0.61897        0.19459
H         -3.97819       -0.26642        0.49176
H         -4.35540        1.21302       -0.05231
H         -1.33628        3.37976        0.38975
H          0.73980        2.87587       -0.69017
N          3.70402        0.75834        0.22029
H          4.33455        0.18335        0.78188
H          4.18456        1.65479        0.12642
H          4.13537       -1.73872       -0.00697
H          2.05212       -2.69461       -0.40855
