23
Coordinates from ORCA-job ./opt_b97-3c_parallel
N         -0.22012       -3.72215        1.13155
C          0.09000       -2.67988        0.78060
C          0.47047       -1.37913        0.30156
C          1.87132       -1.24048        0.02872
C          2.35945       -0.25233       -0.75820
C          2.43204        0.76975        0.12872
C          1.26574        1.46841        0.58552
C         -0.02849        1.07486        0.26640
N         -0.89132        2.10237        0.36341
C         -2.18621        1.87943        0.03937
N         -3.26920        1.18237       -0.36538
C         -2.97694       -0.13904       -0.57631
C         -1.71860       -0.81069       -0.33535
C         -0.43710       -0.34183        0.01922
H         -1.85153       -1.86799       -0.53520
H         -3.96789       -0.50432       -0.88417
H         -2.49840        2.91737        0.22972
H          1.44205        2.44526        1.03231
N          3.42280        1.22447        0.31464
H          3.20131        2.14221       -0.06798
H          4.35785        0.98946       -0.01320
H          3.14482       -0.45352       -1.48512
H          2.51424       -2.07821        0.28699
