28
Coordinates from ORCA-job ./opt_b97-3c_parallel
N         -1.59826       -3.86468        1.00001
C         -1.62848       -2.76334        0.69782
C         -1.59538       -1.36727        0.33287
C         -0.37356       -0.77159       -0.05867
N          0.52014       -1.72688       -0.41107
C          1.84814       -1.45819       -0.45097
N          2.87508       -0.62197       -0.15185
C          2.50486        0.62003        0.31111
N          3.56678        0.84417        0.55558
H          4.52115        0.62188        0.84853
H          3.42441        1.80608        0.87702
C          1.20566        1.26148        0.16335
C          1.33177        2.66238        0.46856
N          1.48901        3.76577        0.71651
C         -0.11920        0.62544       -0.11104
C         -1.05176        1.62239       -0.43458
C         -2.46861        1.45421       -0.46769
N         -3.00319        2.35865       -0.81132
H         -4.01338        2.43538       -0.69645
H         -2.69169        3.26966       -1.14433
C         -3.23870        0.48709        0.07321
C         -2.85056       -0.70859        0.55666
H         -3.63259       -1.33055        0.98675
H         -4.31365        0.67034        0.14174
H         -0.71805        2.60594       -0.76019
N          2.23401       -2.41874       -0.84154
H          3.17965       -2.66993       -1.13425
H          1.64964       -3.19571       -1.15795
