27
Coordinates from ORCA-job ./opt_b97-3c_parallel
N         -0.08179       -3.81927       -0.07358
C         -0.44888       -2.73803       -0.05405
C         -0.85298       -1.35436       -0.03790
C         -2.27847       -1.22146        0.10067
C         -3.07396       -0.04018        0.04197
C         -4.49382       -0.18126        0.12855
N         -5.63101       -0.24608        0.20240
C         -2.53860        1.26806       -0.14602
N         -1.22980        1.70712       -0.12406
C         -0.03766        1.07136       -0.04776
C          0.97016        2.02577        0.05575
C          2.40112        1.92785        0.13221
C          3.17786        0.80725       -0.00508
C          4.59132        1.04344        0.05854
N          5.36759        0.37395        0.56436
C          2.70317       -0.51865       -0.23402
N          1.41793       -0.89238       -0.21343
C          0.16386       -0.38284       -0.09787
N          3.05051       -1.55904       -0.39056
H          3.10249       -2.47470       -0.84205
H          3.99542       -1.38815       -0.03447
H          2.89359        2.88899        0.27063
H          0.66611        3.07002        0.12398
N         -2.91286        2.30608       -0.25199
H         -3.83614        2.27475        0.18814
H         -2.96637        3.08876       -0.90729
H         -2.84109       -2.14915        0.20137
