29
Coordinates from ORCA-job ./opt_b97-3c_parallel
N         -3.02055       -3.69436       -0.01716
C         -2.39819       -2.73507       -0.01228
C         -1.95895       -1.35332       -0.00497
C         -0.57356       -1.43156       -0.00388
C          0.45536       -0.39753        0.00252
C          1.71209       -1.00780        0.00157
C          3.03296       -0.42790        0.00602
C          4.00965       -1.48715        0.00286
N          4.94503       -2.14410        0.00250
C          3.40962        0.89564        0.01215
C          2.54132        2.03458        0.01609
C          1.17065        2.03780        0.01460
C          0.20245        1.03768        0.00891
C         -1.10386        1.67539        0.01059
C         -2.43473        1.13920        0.00605
C         -3.47227        2.14381        0.00897
N         -4.31332        2.91815        0.01232
C         -2.81841       -0.19166       -0.00019
N         -3.89129       -0.49747       -0.00323
H         -4.65593        0.17565       -0.00055
H         -4.31732       -1.42367       -0.00746
H         -1.11790        2.76252        0.01515
H          0.82515        3.06655        0.01879
H          3.01040        3.02044        0.02083
N          4.45098        1.27902        0.01484
H          5.16330        0.55008        0.01348
H          4.94440        2.16943        0.01933
H          1.74627       -2.09469       -0.00304
H         -0.15957       -2.43937       -0.00835
