29
Coordinates from ORCA-job ./opt_b97-3c_parallel
N         -5.16825       -0.51133       -0.26606
C         -4.05141       -0.27764       -0.19511
C         -2.64122       -0.01135       -0.07818
C         -1.96171       -1.20664       -0.13245
C         -0.53464       -1.37867        0.02356
C         -0.41632       -2.81869       -0.00356
N          0.19149       -3.69329       -0.41949
C          0.47612       -0.42568        0.12393
N          1.66933       -1.11198        0.39707
C          2.91607       -0.60490        0.13211
N          3.31959       -1.54177        0.55598
H          3.24001       -2.55874        0.52139
H          4.14681       -1.33815        1.11627
C          3.27462        0.39222       -0.70821
C          2.86010        1.55700       -0.15052
N          3.62162        2.35860       -0.11955
H          3.14081        3.21755       -0.38773
H          4.61734        2.57774       -0.15826
C          1.49747        1.87748        0.18674
C          0.42460        0.97831        0.12437
C         -0.80068        1.75502        0.16456
C         -2.11225        1.31575        0.10430
N         -2.79909        2.18365        0.17374
H         -3.79042        1.98583        0.03731
H         -2.75500        3.08046        0.65587
H         -0.66315        2.83709        0.23574
H          1.33878        2.93237        0.40649
H          4.16862        0.31888       -1.32937
H         -2.57313       -2.10673       -0.25969
