27
Coordinates from ORCA-job ./opt_b97-3c_parallel
N         -1.33496       -4.10640        0.42277
C         -1.24010       -2.97752        0.28297
C         -1.07352       -1.55813        0.12171
C         -2.21918       -0.85125        0.63179
C         -2.59147        0.48491        0.30282
C         -3.89842        0.93936        0.65886
N         -4.93141        1.34761        0.92318
C         -1.79005        1.28935       -0.56033
N         -0.41036        1.32963       -0.54903
C          0.50741        0.41031       -0.14409
C          0.18537       -1.01987       -0.21218
C          1.15998       -1.93790       -0.60733
C          2.52514       -1.84940       -0.62829
N          3.42190       -1.00886       -0.11447
C          3.04701        0.23589        0.33796
C          1.79739        0.92487        0.10089
C          1.90374        2.34947        0.27933
N          1.95761        3.47895        0.43233
N          4.11726        0.37930        0.59914
H          5.04942       -0.04092        0.61899
H          4.23875        1.29212        1.04296
H          3.05099       -2.75904       -0.96223
H          0.84278       -2.92063       -0.94242
N         -1.85096        2.28673       -1.04052
H         -1.54105        3.12117       -1.54199
H         -2.86053        2.41283       -0.93312
H         -2.99685       -1.44293        1.11431
