29
Coordinates from ORCA-job ./opt_b97-3c_parallel
N          0.96092        3.40415       -1.44498
C          1.20293        2.40028       -0.95283
C          1.47294        1.11230       -0.35920
C          2.84731        1.01369       -0.49236
C          3.66386       -0.05729       -0.03349
C          3.22105       -1.31206        0.29799
N          4.04882       -2.00935        0.52371
H          5.03611       -1.75975        0.52445
H          3.98479       -2.94719        0.91497
C          1.90394       -1.86588        0.15805
C          0.67772       -1.22076        0.02424
C         -0.32554       -2.17234       -0.13570
C         -1.68384       -2.09881       -0.33787
C         -2.52742       -0.94262       -0.13520
C         -3.81562       -1.53849       -0.43525
N         -4.84644       -1.56826       -0.92954
C         -2.05707        0.26556        0.36040
N         -3.00700        0.79984        0.60447
H         -2.93628        1.75406        0.95411
H         -3.98805        0.64570        0.37604
C         -0.75553        0.75389        0.44740
C         -0.71254        1.99877        1.19574
N         -0.52023        2.62741        2.13205
C          0.45513        0.15258        0.08392
H         -2.13157       -3.05806       -0.60647
H         -0.00509       -3.20667       -0.22547
H          1.91652       -2.95065        0.25588
H          4.73341        0.15007       -0.04915
H          3.43751        1.85982       -0.84786
