27
Coordinates from ORCA-job ./opt_b97-3c_parallel
N          5.33906       -0.45341       -1.12510
C          4.26132       -0.21821       -0.82884
C          2.91425        0.11470       -0.48796
C          2.30398       -0.77771        0.34475
C          1.19561       -1.37890       -0.16939
C          0.14282       -0.50418       -0.17567
N         -0.82648       -1.36754       -0.17904
C         -2.12451       -1.29720       -0.15216
N         -2.14768       -1.99209       -1.01246
H         -3.13138       -1.97592       -1.28038
H         -1.81942       -2.93990       -1.19891
C         -2.75792       -0.34857        0.61101
C         -3.63621       -0.66093        1.21258
N         -4.75828       -0.51163        1.37358
C         -2.21946        0.91183        0.52240
N         -1.07172        1.53194        0.18375
C          0.05645        0.86943       -0.16796
N          1.03566        1.75565       -0.60898
C          2.33248        1.35611       -0.92903
H          3.00575        2.04808       -1.45885
N         -2.46653        1.98947        0.61028
H         -2.40732        2.97499        0.86509
H         -3.44183        1.72251        0.74742
H          1.27874       -2.23673       -0.83647
N          2.53875       -1.09677        1.62809
H          2.25407       -2.00872        1.98568
H          3.45045       -0.89368        2.03966
