29
Coordinates from ORCA-job ./opt_b97-3c_parallel
N          4.79280        0.06290       -0.39627
C          3.68802       -0.11245       -0.15563
C          2.29430       -0.37490        0.13447
C          2.14987       -1.52007        0.98298
C          0.97621       -2.31676        1.11563
C         -0.25639       -2.12252        0.42166
C         -0.85922       -0.84337        0.09934
C         -2.21740       -1.02347       -0.39300
N         -2.72266       -1.95748       -0.72055
H         -3.42136       -2.06401       -1.45351
H         -1.82562       -2.18806       -1.14351
C         -3.25912       -0.11511       -0.50539
C         -3.29122        1.19642        0.04903
C         -2.25090        1.96689        0.49133
C         -0.83071        1.70211        0.34389
N         -0.43960        2.71704        0.57451
H         -0.53685        3.64938        0.97202
H          0.52454        2.43030        0.73610
C         -0.14944        0.42119        0.10812
C          1.22947        0.48586       -0.16190
N          1.59938        1.37525       -0.72559
H          0.81645        1.89906       -1.11473
H          2.27558        1.25798       -1.47829
H         -2.58021        2.95589        0.83148
H         -4.27273        1.65962        0.06761
H         -4.24785       -0.40599       -0.87997
H         -0.89277       -3.00143        0.44395
H          1.11658       -3.28263        1.59065
H          3.05508       -1.97197        1.38058
