30
Coordinates from ORCA-job ./opt_b97-3c_parallel
N         -2.31817       -1.99153       -2.47217
C         -1.78570       -2.29093       -1.50391
C         -0.82978       -1.46984       -0.81486
C         -0.22747       -2.72594       -0.72177
N          0.74301       -3.12158        0.19507
C          1.41618       -2.16097        0.91734
C          1.76334       -1.07073        0.18477
C          0.93210        0.01254        0.05263
C         -0.42575       -0.22986       -0.14016
C         -1.47858        0.63560        0.16093
C         -2.83119        0.13505        0.13991
N         -3.89808       -0.27273        0.16738
C         -1.27567        1.87246        0.87944
C         -0.22977        2.80936        0.54176
C          0.83965        2.52396       -0.38249
C          1.48063        1.23348       -0.52188
C          2.76695        1.20638       -1.17173
N          3.78510        1.13591       -1.68490
N          1.26976        3.49468       -0.70158
H          0.81577        4.39819       -0.83002
H          2.15402        3.54532       -1.20638
H         -0.34814        3.85136        0.86675
N         -2.01709        2.46735        1.45119
H         -2.11466        3.46443        1.63899
H         -2.95013        2.06812        1.54821
H          2.83264       -0.95781        0.02020
N          1.99444       -2.88159        1.52338
H          2.02980       -3.87090        1.77379
H          2.68698       -2.42385        2.11630
H         -0.00311       -3.80069       -0.82439
