26
Coordinates from ORCA-job ./opt_b97-3c_parallel
N          3.75260        0.96001        0.05210
C          2.81339        0.37829        0.00379
C          1.60496        1.15705       -0.03098
C          0.22519        0.69405       -0.06647
C         -0.62988        1.86651       -0.10810
C         -1.99521        1.99664       -0.12224
C         -2.99682        0.98912       -0.05573
C         -2.79542       -0.36624       -0.00402
C         -1.58851       -1.14359       -0.03527
C         -0.20658       -0.69818       -0.06693
C          0.62532       -1.81055       -0.09267
C          1.98954       -1.93288       -0.09281
C          2.96684       -0.98340       -0.03855
H          3.98120       -1.37979       -0.02956
H          2.35455       -2.95481       -0.12558
H          0.15474       -2.78844       -0.12002
H         -1.76070       -2.21823       -0.01579
N         -3.73271       -0.95077        0.04749
H         -3.67916       -1.87696        0.46638
H         -4.60523       -0.53507        0.36749
H         -4.01565        1.37501       -0.05157
H         -2.37943        3.01111       -0.16544
H         -0.12297        2.82537       -0.13893
H          1.77410        2.23165       -0.01508
H          4.62041        0.53610        0.37419
H          3.70463        1.88546        0.47346
