23
Coordinates from ORCA-job ./opt_b97-3c_parallel
N         -1.68246       -2.19873        0.20787
C         -1.18687       -1.21270        0.08023
C          0.10294       -0.55056        0.11396
C          1.08741       -1.47907        0.40256
C          2.50441       -1.28929        0.42691
C          3.21152       -0.16779        0.08048
C          2.70921        1.10681       -0.32657
C          1.40920        1.54379       -0.39893
C          0.18546        0.81475       -0.16870
C         -0.83773        1.76057       -0.20551
N         -2.16423        1.66187        0.19358
C         -2.74066        0.42135        0.28779
C         -2.33183       -0.66567       -0.41101
H         -2.54972       -0.70867       -1.47970
H         -3.77809        0.50573        0.64334
H         -1.02001        2.83996       -0.31879
H          1.30582        2.59572       -0.65509
H          3.48870        1.82866       -0.54888
H          4.29501       -0.22665        0.10931
H          3.08365       -2.16359        0.70675
H          0.79521       -2.49623        0.65057
H         -0.83413       -2.39916       -0.31764
H         -2.40928       -2.80782       -0.16324
