27
Coordinates from ORCA-job ./opt_b97-3c_parallel
N          0.30888       -3.08045        1.97266
C         -0.05635       -2.19760        1.34732
C         -0.47771       -1.05231        0.58287
C         -1.90253       -0.85621        0.58892
C         -2.62210        0.17156       -0.10107
C         -4.03118       -0.04023       -0.27894
N         -5.15986       -0.18969       -0.39113
C         -2.13307        1.43842       -0.36688
C         -0.82913        1.93705        0.00243
C          0.31914        1.17199        0.11381
N          1.34873        2.05361        0.41876
C          2.64921        1.68294        0.28179
N          3.52002        0.78925       -0.24706
C          2.93601       -0.31284       -0.82758
C          1.62469       -0.85722       -0.55043
C          1.52310       -2.17618       -1.11211
N          1.48607       -3.22984       -1.55213
C          0.49246       -0.21400        0.01604
H          3.76723       -0.84560       -1.31591
N          3.35360        2.43439        0.67597
H          3.09387        2.99416        1.48785
H          4.37297        2.40375        0.67279
H         -0.69357        3.02493        0.01123
N         -2.68567        2.33203       -0.73086
H         -2.60081        3.27333       -1.11245
H         -3.66311        2.06921       -0.85947
H         -2.49912       -1.67182        0.99248
