24
Coordinates from ORCA-job ./opt_b97-3c_parallel
N         -5.56904       -0.61508       -0.03904
C         -4.43301       -0.51122        0.02551
C         -3.00979       -0.40576        0.07003
C         -2.18564       -1.53994        0.30339
N         -0.80643       -1.59288        0.30841
C          0.15811       -0.60134        0.14547
C         -0.10912        0.82686       -0.03149
N         -1.34530        1.45253       -0.14602
C         -2.54133        0.86211       -0.11638
H         -3.09874        1.79535       -0.28983
C          0.93135        1.83035       -0.11840
C          0.76538        3.25063       -0.24654
N          0.67471        4.38558       -0.34123
C          2.28768        1.66381       -0.11039
N          3.07566        0.59014       -0.05275
C          2.75473       -0.70143        0.06180
C          1.40744       -1.22446        0.18783
C          1.76397       -2.61395        0.33885
N          2.38252       -3.55778        0.14843
N          3.86695       -0.71769        0.01073
H          4.86863       -0.52549       -0.02202
H          3.78496       -1.73090       -0.09987
H          3.15607        2.33892       -0.17485
H         -2.66284       -2.51974        0.46069
