25
Coordinates from ORCA-job ./opt_b97-3c_parallel
N          4.05986        1.68534        0.39228
C          3.08768        1.09775        0.26349
C          1.88447        0.32266        0.10607
C          0.61661        0.89868        0.46938
N          0.38269        1.87488        0.93995
H          1.26388        2.35765        1.10816
H         -0.36213        2.54079        1.13501
C         -0.57318        0.39893        0.04350
C         -1.39339        0.77230       -0.97445
N         -2.70438        0.91698       -1.16428
C         -3.59346        0.46281       -0.26681
N         -3.41951       -0.44178        0.78343
C         -2.24220       -1.14589        1.03625
C         -0.96764       -0.83097        0.44537
C         -0.20164       -2.02893        0.26849
C          1.05290       -2.06964       -0.31219
C          2.00320       -0.96231       -0.42767
N          2.90616       -1.45497       -0.84515
H          3.71952       -0.84347       -0.89326
H          3.20688       -2.36912       -1.17761
H          1.37354       -3.07311       -0.60058
H         -0.71013       -2.96443        0.48361
H         -3.24630       -1.22985        1.47731
H         -4.62901        0.77566       -0.46951
H         -1.11464        1.32892       -1.88126
