25
Coordinates from ORCA-job ./opt_b97-3c_parallel
N         -1.29531       -3.49125        0.30695
C         -0.65407       -2.54797        0.24936
C          0.18204       -1.38216        0.22348
C          1.52926       -1.70223        0.63539
C          2.52467       -0.79457        0.79781
C          2.58914       -0.34267       -0.48706
N          2.06711        0.91556       -0.25256
C          0.75242        1.09199        0.06040
C          0.45550        2.40706        0.36231
C         -0.79534        3.00497        0.70347
C         -2.03111        2.50328        0.41445
C         -2.35706        1.32221       -0.19212
C         -1.58474        0.18354       -0.39574
C         -2.54743       -0.68885       -1.02510
N         -2.31529       -0.94161       -2.11763
C         -0.19994       -0.03565        0.02220
H         -3.41806        1.31242       -0.45702
H         -2.86041        3.18059        0.59990
H         -0.73148        4.02460        1.07286
H          1.28303        3.10586        0.46048
N          3.56085       -0.05867       -0.93228
H          3.77557        0.66105       -1.62250
H          4.18574       -0.83808       -1.13851
H          3.41530       -1.04364        1.37523
H          1.74442       -2.74795        0.84810
