27
Coordinates from ORCA-job ./opt_b97-3c_parallel
N         -1.86797       -3.49567        0.53594
C         -1.59982       -2.39465        0.37921
C         -1.27535       -0.99875        0.22205
C          0.08404       -0.72816       -0.00148
N          0.94875       -1.73521       -0.30465
C          2.25031       -1.42056       -0.61469
C          3.41119       -0.76103       -0.86315
C          2.82024        0.33449       -0.30498
N          1.81352        1.14159        0.19274
C          0.55138        0.63789        0.22072
C         -0.11780        1.68738        0.75224
C         -1.10553        2.09383       -0.07969
C         -2.30904        1.34415       -0.26463
C         -2.39025       -0.04991        0.14158
N         -3.47346       -0.27815        0.16522
H         -3.66749       -1.24204        0.43587
H         -4.37260        0.20187        0.16150
H         -3.19042        1.88332       -0.61774
N         -0.96553        3.15995       -0.33061
H         -1.91787        3.45820       -0.12030
H         -0.57742        3.87447       -0.94550
H         -0.23958        1.77420        1.83148
N          3.45729        1.20525       -0.04776
H          4.22500        0.88990        0.54450
H          3.58633        2.21081       -0.16241
H          4.35982       -1.15895       -0.50546
H          2.27987       -2.51594       -0.72789
