23
Coordinates from ORCA-job ./opt_b97-3c_parallel
N         -1.74019       -2.11564        0.04447
C         -1.14129       -1.18434        0.02801
N         -2.40601       -0.75401        0.42565
C         -2.72003        0.58750        0.41195
C         -2.07585        1.50148       -0.34354
C         -0.84788        1.80948        0.13429
C          0.27442        0.89340        0.12126
C          1.44257        1.61307        0.30627
C          2.79150        1.14507        0.23806
C          3.23442       -0.10093       -0.11754
C          2.46073       -1.26055       -0.42709
C          1.09957       -1.43651       -0.37128
C          0.05779       -0.47131       -0.09103
H          0.78750       -2.45773       -0.57369
H          3.06639       -2.12623       -0.68014
H          4.30803       -0.25468       -0.17978
H          3.55277        1.89489        0.43369
H          1.38670        2.67694        0.52144
H         -0.65826        2.85746        0.35268
H         -2.62687        2.20787       -0.96158
H         -3.70279        0.97843        0.71834
H         -0.94687       -2.44944        0.59023
H         -2.37074       -2.90884       -0.06451
