26
Coordinates from ORCA-job ./opt_b97-3c_parallel
N          0.07839        2.76529       -0.49718
C         -0.48777        1.54513       -0.43694
C         -1.81474        1.71462       -0.73316
C         -2.87936        0.86843       -0.25027
C         -2.66469       -0.31733        0.43189
C         -1.38961       -0.99141        0.38737
C         -0.31566       -0.70123       -0.40865
C          0.48340       -1.43102       -1.22915
N          1.65480       -2.00551       -0.94423
C          2.39172       -1.66408        0.12776
N          2.38969       -0.47790        0.86854
C          1.49293        0.57541        0.68323
N          2.17533        1.23749        1.24568
H          1.55018        1.95864        0.88051
H          2.55830        1.60389        2.11560
C          0.29833        0.47303       -0.11765
H          3.22656       -2.37212        0.25001
H         -0.10510       -1.74449       -2.10498
N         -1.31023       -1.91259        0.99289
H         -1.07646       -2.88549        0.79844
H         -2.08877       -1.93677        1.65125
H         -3.50053       -0.78902        0.94460
H         -3.88936        1.24607       -0.38110
H         -2.15734        2.59291       -1.27806
H          0.70679        2.97909       -1.27240
H         -0.52302        3.58538       -0.40544
