32
Coordinates from ORCA-job ./opt_b97-3c_parallel
N          4.63283        1.39887       -0.58091
C          3.63807        0.90383       -0.31410
C          2.37333        0.26355       -0.02091
C          1.17376        0.85747       -0.42481
N          1.22905        1.78318       -1.04566
H          0.76374        2.68889       -1.08980
H          2.10095        1.89137       -1.56509
C         -0.16274        0.46007        0.03256
C         -1.05571        1.49995        0.35177
N         -0.87492        2.56408        0.61468
H          0.12936        2.49946        0.78698
H         -1.09982        3.55777        0.67298
C         -2.48693        1.44552        0.59797
C         -3.26652        0.37069        0.26449
N         -2.98643       -0.80527       -0.30273
C         -1.81782       -1.40564       -0.56715
N         -2.46221       -2.24634       -0.89382
H         -1.55983       -2.54825       -1.26267
H         -3.15118       -2.82702       -1.37467
C         -0.50365       -0.93797       -0.18282
C          0.37711       -2.00328       -0.13594
C          1.57947       -2.01736        0.64055
C          2.42636       -0.87246        0.86648
N          3.28056       -1.29789        1.42933
H          4.12344       -0.79512        1.15157
H          3.54951       -1.88278        2.21960
H          1.89112       -3.00730        0.98510
H          0.01426       -3.00844       -0.33193
N         -4.36674        0.32001        0.36222
H         -5.26648        0.28333       -0.12121
H         -4.56719        0.74051        1.27153
H         -3.01536        2.32915        0.98150
