22
Coordinates from ORCA-job ./opt_b97-3c_parallel
N         -3.16441       -1.15648       -0.26039
C         -2.22182       -0.69371        0.07428
N         -2.63142        0.54655       -0.23091
C         -1.78240        1.55756        0.01189
N         -0.57009        1.57941        0.47012
C          0.38925        0.72027        0.28804
C          1.55039        1.41468        0.01221
C          2.85098        0.87648       -0.25694
C          3.23872       -0.44129       -0.30326
C          2.44273       -1.61438       -0.10507
C          1.10248       -1.69444        0.18124
C          0.16085       -0.70520        0.36546
C         -1.08986       -1.18453        0.66132
H         -1.20213       -1.85595        1.50992
H          0.74212       -2.71523        0.28027
H          2.99575       -2.54407       -0.19903
H          4.28218       -0.64902       -0.51988
H          3.62296        1.61587       -0.44505
H          1.51691        2.50266       -0.01057
H         -2.07485        2.59497       -0.20830
H         -2.58047       -1.59271       -0.97022
H         -3.99799       -0.81059       -0.73167
