32
Coordinates from ORCA-job ./opt_b97-3c_parallel
N         -5.20199        0.14986        1.26123
C         -4.14448       -0.00604        0.85911
C         -2.83190       -0.25107        0.34361
C         -2.18647       -1.51080        0.64565
N         -0.89821       -1.73418        0.30466
C         -0.05877       -0.74640       -0.05481
N          0.88875       -1.59320       -0.33094
C          2.14086       -1.44672       -0.64514
N          2.12549       -2.38426       -1.22852
H          1.84432       -3.23422       -1.71600
H          3.14472       -2.35966       -1.26738
C          2.91602       -0.31021       -0.21560
C          4.26825       -0.17623       -0.66634
N          5.35298       -0.11203       -1.01922
C          2.38559        0.66644        0.59586
N          3.07368        0.93979        1.72169
H          4.08708        0.81696        1.74391
H          2.86669        1.78345        2.25708
C          1.07428        1.06551        0.68330
C          0.30423        1.80410        1.64403
N         -0.34657        2.36656        2.39589
C          0.03183        0.62115       -0.09995
C         -1.04518        1.04294       -0.84054
C         -0.31691        1.84972       -1.77498
N          0.29945        2.47497       -2.50566
C         -2.33385        0.69206       -0.52278
N         -3.02934        0.83314       -1.66829
H         -2.84004        1.62408       -2.28542
H         -4.04183        0.70285       -1.66757
N         -2.14927       -2.51326        1.10448
H         -1.89266       -3.33598        1.64920
H         -3.16880       -2.47555        1.10995
