29
Coordinates from ORCA-job ./opt_b97-3c_parallel
N         -5.16689       -0.34786       -0.31049
C         -4.02818       -0.25123       -0.22250
C         -2.59235       -0.14996       -0.07380
C         -2.27275        1.13732       -0.46153
C         -1.00783        1.78583       -0.21875
C         -1.29202        3.17627       -0.47324
N         -1.28351        3.97037       -1.29309
C          0.21415        1.20916        0.09741
N          1.14282        2.22650        0.33942
C          2.39106        1.91502        0.81324
C          3.17910        0.86495        1.14141
C          3.09196        0.10310        0.01235
N          4.10923       -0.09088       -0.38818
H          5.04533        0.30490       -0.45420
H          4.04668       -0.80475       -1.11243
C          1.86230       -0.54235       -0.40597
C          1.88604       -1.48380       -1.49774
N          1.87122       -2.22391       -2.37112
C          0.59464       -0.13773        0.05041
C         -0.32983       -1.23055        0.36067
C          0.28871       -2.46397        0.81605
N          0.71233       -3.45205        1.20549
C         -1.72150       -1.18572        0.46175
N         -2.34032       -2.04582        0.81243
H         -3.34647       -2.15091        0.93361
H         -1.91474       -2.89488        1.18258
H          4.10723        1.01388        1.69705
H          2.77152        2.93190        0.99001
H         -3.08336        1.76739       -0.84034
