24
Coordinates from ORCA-job ./opt_b97-3c_parallel
N         -3.47495       -0.37845       -1.02154
C         -2.50512       -0.17000       -0.11637
C         -2.09247       -1.27096        0.57240
C         -0.71515       -1.66696        0.73212
C          0.38749       -0.86921        0.22879
C          1.63736       -1.59848        0.35258
N          2.87130       -1.14501        0.07335
C          3.10583       -0.04522       -0.63790
N          2.33635        0.68080       -1.36604
C          1.27330        1.21256       -0.87134
C          0.22405        0.53257       -0.15849
C         -0.89807        1.24871        0.14791
C         -2.23192        1.16273       -0.11696
H         -2.95653        1.91042        0.19714
N         -0.64158        2.15707        1.10668
H         -1.38808        2.48494        1.71663
H          0.21359        2.09370        1.65594
H          1.31569        2.25245       -1.22750
H          4.20221        0.04118       -0.66978
H          2.03440       -2.56128        0.70664
H         -0.51337       -2.64044        1.16935
H         -2.82862       -1.96069        0.97238
H         -3.59211       -1.29615       -1.44603
H         -3.67697        0.32605       -1.72724
