29
Coordinates from ORCA-job ./opt_b97-3c_parallel
N          0.96870        2.45527       -0.77028
C          0.89308        1.37783        0.03615
C          2.17398        1.31462        0.49910
C          2.98090        0.12907        0.40552
N          2.48115       -1.12697        0.02793
C          1.16927       -1.45170       -0.14378
C         -0.09055       -0.83571       -0.07044
C         -1.14569       -1.83763       -0.14913
N         -2.51919       -1.69775       -0.07394
C         -3.02294       -0.43897        0.05086
N         -2.81178        0.90878        0.13517
C         -1.50456        1.37313        0.11151
C         -0.24324        0.62153        0.04277
N         -1.95751        2.38874        0.16460
H         -1.17129        3.00852       -0.04855
H         -2.76856        3.01525        0.16073
N         -4.08851       -0.73449        0.09240
H         -4.82704       -0.61717       -0.60556
H         -4.55197       -1.19380        0.88030
H         -1.49236       -2.88069       -0.23279
N          1.67097       -2.43810       -0.27290
H          1.90269       -3.17756        0.39925
H          1.92503       -2.84391       -1.18017
N          4.06326        0.02119        0.62430
H          4.81784        0.01548       -0.06761
H          4.54068        0.21245        1.50972
H          2.67314        2.20186        0.88760
H          1.39700        2.37910       -1.69597
H          1.31211        3.34294       -0.39395
