29
Coordinates from ORCA-job ./opt_b97-3c_parallel
N          0.58930        4.06530        1.04973
C          0.76631        2.98065        0.74060
C          0.92635        1.60480        0.35484
C          2.23949        1.12070        0.69174
C          2.86686       -0.04654        0.16374
C          4.27700       -0.20177        0.34480
N          5.39784       -0.37143        0.46466
C          2.16432       -1.00141       -0.63141
N          0.82067       -1.30910       -0.53084
C         -0.24774       -0.59276       -0.08214
C         -0.20608        0.87266       -0.05315
C         -1.33402        1.62290       -0.40280
C         -2.66485        1.28370       -0.48021
N         -3.37600        0.25018       -0.01466
C         -2.76743       -0.90766        0.44049
C         -1.41096       -1.34550        0.17848
C         -1.22313       -2.76553        0.33791
N         -1.08410       -3.88623        0.49655
N         -3.74092       -1.36645        0.72667
H         -3.49633       -2.28085        1.11834
H         -4.75499       -1.31591        0.85772
N         -3.49235        1.95948       -0.78522
H         -3.19406        2.88422       -1.10844
H         -4.50723        1.97958       -0.91651
H         -1.17047        2.66460       -0.67219
N          2.42491       -1.94411       -1.15595
H          2.26125       -2.84788       -1.60460
H          3.44514       -1.85653       -1.13934
H          2.90991        1.81864        1.19312
