31
Coordinates from ORCA-job ./opt_b97-3c_parallel
N         -5.71540       -1.28316        0.01713
C         -4.61129       -0.98709        0.04439
C         -3.22028       -0.59396        0.11734
C         -2.44089       -1.55691        0.83467
C         -1.02632       -1.74682        0.78635
C          0.01878       -0.86193        0.30231
C         -0.21418        0.56417        0.19959
N          0.77598        1.45750        0.61027
C          2.14165        1.31825        0.66945
C          2.92817        0.42199       -0.12272
C          4.23169        0.98001       -0.41138
N          5.24750        1.46255       -0.61035
C          2.49647       -0.87466       -0.41573
C          1.25197       -1.49273        0.05931
C          1.33359       -2.93898       -0.01938
N          1.48522       -4.07140       -0.03343
N          3.32329       -1.44566       -0.90818
H          4.27549       -1.24540       -1.21597
H          3.17956       -2.43833       -1.09822
N          2.11444        2.32302        1.13663
H          3.12693        2.45706        1.13471
H          1.72367        3.20773        1.46259
C         -1.42455        1.20871       -0.10422
C         -1.36592        2.64378       -0.35608
N         -0.97095        3.66027       -0.70005
C         -2.73588        0.61824       -0.37906
N         -3.52886        1.23937       -0.86684
H         -4.50691        0.95708       -0.93527
H         -3.48429        2.17722       -1.26404
H         -0.75671       -2.72255        1.17572
H         -2.98444       -2.40540        1.24601
