26
Coordinates from ORCA-job ./opt_b97-3c_parallel
N         -4.77136       -0.86570        0.79844
C         -3.72145       -0.54178        0.48315
C         -2.40494       -0.16511        0.06042
C         -1.60910       -1.21414       -0.37353
C         -0.14148       -1.19558       -0.49375
C          0.08060       -2.58077       -0.81421
N          0.41687       -3.07842       -1.78751
C          0.74521       -0.15181       -0.18116
C          0.24651        1.19716       -0.30863
N          0.85417        2.43471       -0.20752
C          2.13730        2.59962        0.10698
C          3.19998        1.79436        0.40313
C          3.16753        0.36723        0.44957
C          2.06593       -0.43909        0.17257
C          2.66287       -1.72436        0.43663
N          2.74508       -2.54690        1.22726
H          4.14740       -0.03078        0.72590
H          4.15889        2.24985        0.62997
H          2.22773        3.69591        0.08152
C         -0.95801        1.58328       -0.79307
C         -2.00907        1.20658       -0.02654
N         -2.51745        2.15321        0.23598
H         -3.34619        1.89626        0.76995
H         -2.18217        3.03667        0.61659
H         -1.08817        1.75185       -1.86190
H         -2.13501       -2.16527       -0.48940
