27
Coordinates from ORCA-job ./opt_b97-3c_parallel
N         -4.55599       -0.56539        1.12209
C         -3.49482       -0.33477        0.76967
C         -2.18010        0.01770        0.32908
C         -1.48721       -1.03396       -0.20601
N         -1.78894       -1.41529       -1.46190
H         -2.76201       -1.40668       -1.77025
H         -1.39027       -2.28102       -1.83118
C         -0.21451       -1.41120        0.11651
C         -0.14444       -2.66654        0.79886
N         -0.05641       -3.67635        1.32555
C          0.81685       -0.52812       -0.01527
N          2.08313       -0.79234        0.05219
C          3.26897       -0.26752        0.00672
C          3.47267        0.87185       -0.71884
C          2.53294        1.86571       -0.71028
N          1.17536        2.00697       -0.45650
C          0.54283        0.80733       -0.15435
N         -0.44116        1.77951       -0.00750
C         -1.73894        1.39814        0.35005
N         -2.16272        2.38924        0.60539
H         -3.17377        2.26648        0.50965
H         -2.04744        3.31508        1.02175
H          3.15056        2.74509       -0.95245
H          4.33669        0.94280       -1.37867
N          3.57214       -0.46430        1.04743
H          4.53805       -0.14206        1.10322
H          3.53636       -1.33101        1.58362
