28
Coordinates from ORCA-job ./opt_b97-3c_parallel
N         -3.87708       -0.79752       -0.29501
C         -2.80377       -0.55950       -0.15419
N         -2.46759        0.73232       -0.52980
C         -1.19320        1.16259       -0.33207
N         -1.73172        2.10614       -0.57792
H         -1.57427        2.27608       -1.57510
H         -2.38743        2.84136       -0.29491
C          0.04898        0.59166       -0.00809
C          1.06970        1.60492        0.20259
N          2.42393        1.48371        0.45130
C          3.20582        0.34611        0.39822
C          2.88954       -0.93885        0.04291
C          1.55256       -1.47726       -0.13790
N          1.77972       -2.54813       -0.31301
H          2.68415       -3.02299       -0.33325
H          1.13841       -3.19229       -0.77228
C          0.31549       -0.84820       -0.02538
C         -0.81600       -1.76149        0.03336
C         -2.02422       -1.42043        0.54259
H         -2.32023       -1.78138        1.52793
H         -0.62692       -2.82671       -0.07710
H          3.76068       -1.60070       -0.02136
H          4.28832        0.46145        0.57245
N          1.41064        2.65814        0.31038
H          2.02163        3.27083       -0.23764
H          1.41666        3.06436        1.24961
H         -4.17220       -1.66743        0.15528
H         -4.73811       -0.42528       -0.70222
