22
Coordinates from ORCA-job ./opt_b97-3c_parallel
N          4.20342        1.50769       -0.32564
C          3.50602        0.77629        0.20921
C          2.17102        0.26526        0.16368
C          2.34965       -1.09118        0.11913
N          1.41046       -2.08894        0.06167
C          0.04577       -1.92153        0.00896
C         -0.79276       -0.75204        0.00062
C         -2.14069       -1.24700       -0.12119
C         -3.36610       -0.51645       -0.19457
C         -3.57242        0.83324       -0.12070
C         -2.60091        1.86325        0.04886
C         -1.23360        1.77203        0.13680
C         -0.34792        0.62466        0.10055
C          0.97205        1.04898        0.17753
H          1.18194        2.11282        0.23857
H         -0.74810        2.73720        0.24455
H         -3.01532        2.86547        0.09746
H         -4.60090        1.17432       -0.18731
H         -4.24156       -1.14713       -0.31392
H         -2.26860       -2.32479       -0.18979
H          0.16182       -3.01497       -0.02843
H          3.06050       -1.93105        0.10554
