31
Coordinates from ORCA-job ./opt_b97-3c_parallel
N         -2.37339       -3.35499       -1.29520
C         -2.18963       -2.76029       -0.33738
C         -1.69974       -1.40877       -0.12099
C         -0.30985       -1.68558        0.18483
C          0.74985       -0.79288        0.18274
C          2.00226       -1.44858        0.50477
N          2.42974       -2.42900        0.79778
H          3.18608       -3.05919        1.06588
H          1.61009       -2.74434        1.31583
C          3.19256       -0.82581        0.72228
C          3.63420       -0.22407       -0.41141
N          3.13816        0.91359       -1.01406
C          1.88443        1.27589       -0.66736
N          2.36077        2.16534       -1.13170
H          1.49958        2.62163       -0.82772
H          2.66835        2.67702       -1.95860
C          0.75911        0.64031       -0.10361
C         -0.40665        1.49819        0.13136
N         -0.15552        2.58348        0.24254
H          0.06008        2.54893        1.24083
H         -0.92412        3.25181        0.15772
C         -1.74542        1.10190        0.20838
C         -2.76158        2.12119        0.43820
N         -3.22876        2.97992        1.03136
C         -2.29119       -0.15162       -0.05944
N         -3.37516       -0.37043       -0.21054
H         -3.72824       -1.10519       -0.82360
H         -4.15189        0.27278       -0.06211
H          4.61904       -0.68464       -0.58435
H          3.43435       -0.39253        1.69514
H         -0.02735       -2.73044        0.33199
