25
Coordinates from ORCA-job ./opt_b97-3c_parallel
N         -4.63981       -1.10169       -0.36559
C         -3.57557       -0.72830       -0.19186
C         -2.26309       -0.20154        0.01526
C         -1.46134       -1.10296        0.65549
C         -0.22684       -1.42031        0.17025
C         -0.08314       -2.84067        0.23087
N          0.04852       -3.97192        0.31403
C          0.75775       -0.47636        0.13200
N          2.02907       -0.69236        0.01624
C          3.17880       -0.09563       -0.06484
C          3.33833        1.09924        0.57811
C          2.35575        2.04798        0.50709
N          0.98617        2.10092        0.28607
C          0.40672        0.84790        0.13055
N         -0.66466        1.71279       -0.06628
C         -1.94502        1.18488       -0.26387
N         -2.50770        2.06660       -0.62869
H         -2.50591        2.93051       -1.17412
H         -3.49666        1.84082       -0.49620
H          2.94525        2.96707        0.65140
H          4.19780        1.24888        1.23009
N          3.48139       -0.35947       -1.09054
H          4.41723        0.03232       -1.19606
H          3.51399       -1.27943       -1.53018
H         -1.75673       -1.46288        1.64263
