26
Coordinates from ORCA-job ./opt_b97-3c_parallel
N         -4.84764       -0.70916        1.00730
C         -3.78353       -0.47829        0.66344
C         -2.45947       -0.19965        0.19451
C         -1.72215       -1.30749       -0.19231
C         -0.26797       -1.34755       -0.36567
C         -0.00387       -2.75569       -0.50576
N          0.71166       -3.64665       -0.53838
C          0.67296       -0.32408       -0.19382
N          1.95285       -0.81685        0.01735
C          2.95633        0.06593        0.25086
N          3.49422        1.30030        0.41239
C          2.59918        2.33339        0.25015
C          1.19592        2.25015       -0.09530
C          0.32843        1.09188       -0.29499
C         -0.91483        1.42354       -0.72000
C         -1.97701        1.14019        0.06980
N         -2.35224        2.15382        0.30076
H         -3.31912        1.83471        0.35258
H         -2.34867        3.10861        0.65654
H         -1.07157        1.64754       -1.77599
H          0.71934        3.21816       -0.22791
H          3.05344        3.33063        0.35705
N          3.76492       -0.67030        0.39257
H          4.74517       -0.39419        0.43166
H          3.74535       -1.67363        0.57410
H         -2.26706       -2.25323       -0.22072
