25
Coordinates from ORCA-job ./opt_b97-3c_parallel
N         -2.12893       -3.50138       -0.39304
C         -1.83381       -2.40808       -0.24865
C         -1.42736       -1.04901       -0.03427
C         -2.48925       -0.20275        0.44529
C         -2.30964        1.04733        0.93345
C         -1.88287        1.80180       -0.10923
N         -0.53754        1.87408       -0.41749
C          0.29470        0.83422       -0.13543
C          1.53357        1.38466       -0.32708
C          2.62921        0.80029        0.21633
N          3.11586       -0.47873        0.12635
C          2.30086       -1.50012       -0.34447
C          0.91549       -1.60391       -0.39098
C         -0.10397       -0.57772       -0.13517
H          0.58473       -2.61461       -0.60003
H          2.75859       -2.48848       -0.51600
N          3.61541        1.11150        0.61822
H          3.73263        1.89897        1.25504
H          4.56346        0.74499        0.48990
H          1.67255        2.33623       -0.84595
N         -2.30406        2.71652       -0.56884
H         -3.32305        2.66199       -0.51953
H         -2.11431        3.50497       -1.18953
H         -2.97985        1.45107        1.69194
H         -3.47420       -0.65814        0.53385
