30
Coordinates from ORCA-job ./opt_b97-3c_parallel
N          4.19427        2.11058       -0.20435
C          3.32534        1.36995       -0.27071
C          2.21947        0.44739       -0.31091
C          1.02525        1.14481       -0.31836
C         -0.31752        0.77250       -0.22045
C         -1.20590        1.85917       -0.26857
N         -1.03490        2.93171       -0.50003
H         -0.31792        2.90700       -1.22464
H         -1.36440        3.89654       -0.46760
C         -2.62949        1.98933        0.01510
C         -3.46548        1.00103        0.44964
N         -3.26330       -0.35528        0.52347
C         -2.10855       -1.04168        0.22189
N         -2.90856       -1.77926        0.43376
H         -3.32038       -2.38393        1.14345
H         -2.16626       -2.32840       -0.00162
C         -0.75903       -0.61421       -0.10510
C          0.03428       -1.81889       -0.34326
N         -0.30966       -2.87528       -0.41729
H         -0.13335       -2.87141       -1.42401
H          0.16024       -3.70626       -0.05409
C          1.46536       -1.99314       -0.50196
C          2.45854       -0.96479       -0.38799
N          3.46385       -1.43017       -0.42529
H          4.11495       -0.79969        0.04193
H          4.01040       -2.24079       -0.71275
H          1.86444       -3.00975       -0.64567
H         -4.50542        1.26409        0.69701
H         -3.14130        2.96025       -0.03858
H          1.19072        2.22023       -0.34115
