26
Coordinates from ORCA-job ./opt_b97-3c_parallel
N         -3.58917       -2.97070       -0.52674
C         -2.98780       -2.31840        0.19320
C         -1.96420       -1.31530        0.16282
C         -2.45474        0.03206        0.20582
C         -1.65126        1.16655        0.17536
C         -2.69513        2.17213        0.27398
N         -3.49116        2.98825        0.36436
C         -0.26586        1.29498        0.04181
N         -0.06061        2.38957       -0.01646
H         -0.66930        3.20682        0.00163
H          0.83444        2.68744        0.36975
C          0.73031        0.31314       -0.00749
C          2.04569        0.88725       -0.34751
N          3.22880        0.26090       -0.51150
C          3.49123       -0.99490       -0.14421
N          2.80956       -1.75625        0.62870
C          1.59754       -2.00909        0.29332
C          0.52479       -1.06267        0.12726
C         -0.66348       -1.76173        0.16939
H         -0.56993       -2.84598        0.22279
H          1.87121       -3.06587        0.43385
H          4.54790       -1.06890       -0.44148
N          2.77427        1.67686       -0.61736
H          1.85470        1.72989       -1.05144
H          3.43704        2.06543       -1.28586
H         -3.54688        0.08845        0.26193
