26
Coordinates from ORCA-job ./opt_b97-3c_parallel
N         -5.18009        0.21964       -1.17780
C         -4.10003        0.27383       -0.80807
C         -2.76300        0.34711       -0.30331
C         -2.19760        1.61579        0.01237
C         -1.10444        1.71422        0.79105
C          0.03505        1.19063        0.29049
N          0.76112        2.35373        0.14224
C          2.04090        2.36969       -0.21733
C          3.05780        1.46476       -0.33012
C          2.90938        0.04419       -0.06217
N          3.99816       -0.20359       -0.13168
H          4.97151        0.07602       -0.23210
H          3.95878       -0.83222        0.67022
C          1.70205       -0.64065        0.14173
C          2.10405       -2.01866        0.32185
N          2.37844       -2.70798        1.19273
C          0.36782       -0.20739        0.18317
C         -0.70909       -1.11997        0.21560
C         -0.78928       -2.56030        0.22822
N         -0.74066       -3.51387       -0.40202
C         -2.14669       -0.86983       -0.04264
H         -2.83093       -1.71808       -0.14797
H          4.03003        1.90895       -0.58136
H          2.34778        3.41442       -0.37554
H         -1.19792        1.93561        1.85245
H         -2.78709        2.49965       -0.21292
