29
Coordinates from ORCA-job ./opt_b97-3c_parallel
N          4.28322        1.67041       -0.06179
C          3.26202        1.16165       -0.10978
C          1.99555        0.45231       -0.15516
C          2.24062       -0.96356       -0.02874
N          1.35709       -2.02870       -0.03740
C          0.02864       -1.89247       -0.13002
N          0.06059       -3.00143       -0.08142
H         -0.64843       -3.16252        0.63738
H         -0.05730       -3.76355       -0.75194
C         -0.88492       -0.86604       -0.20993
C         -2.20629       -1.41873       -0.34566
N         -3.29830       -0.99217        0.36485
C         -3.40988        0.29748        0.82067
C         -2.98854        1.36339        0.06875
C         -1.68174        1.42747       -0.58094
N         -1.80139        2.45489       -0.98457
H         -1.05328        3.02363       -1.37873
H         -2.66111        2.77987       -1.42722
C         -0.60445        0.55600       -0.32241
C          0.72259        1.04320       -0.30861
N          0.87182        2.14499       -0.36743
H          1.45937        2.88021       -0.76298
H          0.09980        2.62579        0.09683
H         -3.68002        2.21674        0.08451
H         -4.38444        0.36734        1.32831
H         -2.92785       -2.25005       -0.38231
N          3.06368       -1.70060        0.08766
H          3.72367       -2.16728       -0.53740
H          3.64777       -1.18221        0.74793
