23
Coordinates from ORCA-job ./opt_b97-3c_parallel
N          2.08940        2.78228        0.94135
C          1.88579        1.71851        0.57734
C          1.59511        0.39889        0.08273
C          0.23448        0.53836       -0.07683
N         -0.74503        1.39747       -0.32410
C         -1.97938        1.89682       -0.49894
N         -3.10670        1.10719       -0.29791
C         -2.85773       -0.22502        0.00259
N         -1.82843       -1.14384        0.17335
C         -0.56005       -0.57153        0.08339
N         -0.37820       -1.94030        0.17203
C          0.95922       -2.28404        0.12932
C          2.25886       -1.86893        0.06930
C          2.57723       -0.57182        0.05394
N          3.86923       -0.19340        0.03909
H          4.62358       -0.82389       -0.23130
H          4.15712        0.77270       -0.11858
H          3.05056       -2.61661        0.05556
H          1.03729       -3.38267        0.16806
N         -3.88559       -0.61742        0.11441
H         -4.73027       -0.04919        0.02967
H         -4.20720       -1.51906        0.46901
H         -2.09479        2.96529       -0.74510
