23
Coordinates from ORCA-job ./opt_b97-3c_parallel
N         -5.02248       -0.50412       -1.02300
C         -3.93435       -0.37512       -0.70048
C         -2.58007       -0.23320       -0.26288
C         -1.73482       -1.37878       -0.13751
C         -0.58614       -1.34782        0.57134
C          0.42203       -0.52206        0.20727
N          1.53156       -1.33745        0.09178
C          2.71867       -0.70540       -0.10360
N          3.51750        0.38541       -0.23809
C          2.87539        1.60205       -0.14031
C          1.46174        1.86348        0.03436
C          0.34550        0.92578        0.15780
C         -0.87376        1.59089        0.26719
C         -2.21291        1.06115        0.07469
H         -2.99163        1.82093        0.06996
H         -0.86427        2.67199        0.37584
H          1.21892        2.92236        0.04852
H          3.50660        2.49999       -0.22625
N          3.49150       -1.48548       -0.20250
H          4.50777       -1.44616       -0.13577
H          3.26084       -2.43166       -0.50152
H         -0.55679       -1.83920        1.54228
H         -2.15483       -2.33408       -0.43908
