24
Coordinates from ORCA-job ./opt_b97-3c_parallel
N          3.11848        2.85954       -0.39266
C          2.18065        2.40748        0.07976
C          1.19016        1.37339       -0.00484
C          0.26421        2.37737        0.13242
N         -1.10604        2.30642        0.23361
C         -1.87684        1.17442        0.09355
C         -1.51140       -0.17537       -0.24670
C         -2.66025       -1.01212       -0.47578
N         -3.60771       -1.62784       -0.64389
C         -0.24331       -0.76644       -0.28549
N         -0.19528       -2.05368       -0.72067
C          0.77952       -2.89420       -0.24015
C          1.61300       -2.81286        0.82137
C          2.54384       -2.01587        0.23924
C          2.30156       -0.64390       -0.11026
C          1.03621       -0.05717       -0.08652
H          3.20553       -0.05923       -0.25706
H          3.58117       -2.33752        0.21713
H          1.90543       -3.70586        1.36972
H          0.63185       -3.86857       -0.73151
N         -2.72292        1.87198        0.25209
H         -3.23004        2.71815        0.51208
H         -3.43595        1.14810        0.14881
H         -0.09768        3.41251        0.25054
