28
Coordinates from ORCA-job ./opt_b97-3c_parallel
N         -2.10020       -3.64827       -0.03347
C         -1.30843       -2.82297       -0.02351
C         -0.33815       -1.75287       -0.02205
C          0.80381       -2.41859       -0.43341
C          2.13552       -1.92259       -0.39176
C          2.50715       -0.68765        0.09307
N          3.60313       -0.77315        0.25290
H          4.02426        0.08450        0.60654
H          4.31625       -1.49622        0.32084
C          1.70979        0.51440        0.20842
C          2.41487        1.66999        0.72726
N          2.97576        2.56273        1.16774
C          0.34930        0.67089       -0.11252
C          0.03759        1.95695       -0.56640
C         -1.13627        2.64091       -0.77915
C         -2.43120        2.26544       -0.32395
C         -2.70805        1.05302        0.25409
N         -3.77177        1.00850        0.55595
H         -4.19542        0.22603        1.05091
H         -4.48992        1.72498        0.47181
C         -1.96362       -0.09831        0.37313
C         -0.61761       -0.31916        0.08339
H         -2.54358       -0.93013        0.76255
H         -3.21034        3.01596       -0.46023
H         -1.06441        3.62840       -1.22405
H          0.86717        2.57062       -0.90147
H          2.87796       -2.68831       -0.63265
H          0.77841       -3.47577       -0.70420
