22
Coordinates from ORCA-job ./opt_b97-3c_parallel
N          2.96519        2.62847        0.27983
C          2.44391        1.61482        0.20192
C          1.74937        0.35757        0.09181
C          2.77719       -0.56458       -0.01193
C          2.61253       -1.87489       -0.10620
C          1.37085       -2.39911       -0.12126
N          0.06218       -2.19277       -0.10253
C         -0.50144       -0.97808       -0.01781
N         -1.90235       -1.05465       -0.02860
C         -2.69216        0.07940        0.07081
C         -3.00319        1.40264        0.19785
C         -1.67186        1.66672        0.22731
N         -0.30528        1.53653        0.21485
C          0.28257        0.27321        0.09228
H         -1.49376        2.74891        0.33588
H         -3.64663        1.92107       -0.51345
N         -3.59143       -0.57245        0.03384
H         -3.97138       -1.44973        0.39413
H         -4.40300       -0.07070       -0.33125
H          1.47505       -3.49377       -0.18604
H          3.48044       -2.52810       -0.18173
H          3.82113       -0.23784       -0.01738
