24
Coordinates from ORCA-job ./opt_b97-3c_parallel
N         -4.68531       -0.78952       -0.89085
C         -3.60925       -0.60562       -0.55662
C         -2.27602       -0.31622       -0.12689
C         -1.74779       -1.39974        0.51402
C         -0.44730       -1.63819        0.60988
C          0.51912       -0.82594        0.08233
N          1.52305       -1.60779       -0.17185
C          2.79947       -1.64900       -0.38941
C          3.56842       -0.57949       -0.04316
C          2.98280        0.65079        0.04708
N          1.78850        1.26270        0.13063
C          0.59417        0.62267        0.17997
N         -0.52670        1.45104        0.22109
C         -1.84043        1.05091       -0.01249
N         -2.20976        2.07717       -0.20261
H         -3.17222        2.02140        0.13807
H         -2.20320        2.86846       -0.84928
N          3.40796        1.66733        0.09612
H          3.50855        2.48857        0.69202
H          4.34335        1.45406       -0.24901
H          4.64200       -0.69869        0.09488
H          3.31881       -2.38484       -1.02472
H         -0.15413       -2.52258        1.18040
H         -2.41875       -2.10665        1.00491
