28
Coordinates from ORCA-job ./opt_b97-3c_parallel
N         -4.29372       -1.38016        0.08383
C         -3.23779       -0.94754        0.09597
C         -1.92581       -0.33628        0.09939
C         -2.14709        0.97369       -0.24669
N         -1.42103        2.07764       -0.06825
C         -0.12132        2.03120        0.40812
C          0.88668        1.00407        0.28336
C          2.07957        1.67258        0.50126
C          3.41655        1.18330        0.40760
C          3.83003       -0.00896       -0.11436
C          3.03452       -1.10681       -0.55749
C          1.65907       -1.27543       -0.40909
N          1.58687       -2.31123       -0.80926
H          0.64285       -2.64746       -0.99448
H          2.20337       -2.86630       -1.40199
C          0.62033       -0.34423        0.04719
C         -0.62168       -0.96996        0.25771
N         -0.84442       -2.03698        0.47751
H          0.10603       -2.36420        0.65612
H         -1.43780       -2.56052        1.12329
H          3.69927       -1.88198       -0.96489
H          4.89895       -0.16206       -0.23118
H          4.19323        1.89073        0.68274
H          2.05281        2.71693        0.80751
H         -0.11029        3.12245        0.55595
N         -2.80941        1.81840       -0.53898
H         -3.59561        1.17023       -0.59906
H         -2.96448        2.50049       -1.28217
