22
Coordinates from ORCA-job ./opt_b97-3c_parallel
N         -4.82954       -0.67508       -0.50541
C         -3.70846       -0.65004       -0.72690
C         -2.79657       -0.24306       -0.25431
C         -2.40014        1.05366       -0.45396
N         -1.25448        1.74307       -0.26880
C         -0.07980        1.17678        0.12594
N          0.81065        2.22484        0.32319
C          2.15517        1.94005        0.31950
N          3.07433        0.94495        0.05029
C          2.48583       -0.29758       -0.09650
N          3.56717       -0.36799       -0.40399
H          3.52149       -1.38714       -0.51169
H          4.53559       -0.14972       -0.66193
C          1.26028       -0.89004        0.18490
C          1.50646       -1.97789        0.31937
N          1.65243       -3.01166       -0.14905
C          0.09500       -0.20089        0.32347
N         -0.82536       -0.75221        0.65733
C         -1.89963       -0.98368        0.47321
H         -2.32120       -1.65019        1.24413
H          2.55271        2.95615        0.48291
H         -3.07185        1.87151       -0.76154
