27
Coordinates from ORCA-job ./opt_b97-3c_parallel
N         -2.12999       -2.79846        1.19471
C         -1.80993       -1.79941        0.74260
C         -1.41782       -0.51112        0.21211
C         -2.49550        0.44442        0.07454
C         -2.40890        1.77058       -0.47056
C         -1.23102        2.56846       -0.45644
C          0.03533        2.23230       -0.05419
C          0.65390        0.92442        0.00754
C          2.00937        1.08831        0.26503
C          3.08440        0.14031        0.23754
C          3.06784       -1.14029       -0.39489
C          1.90410       -1.84145       -0.81889
C          0.58557       -1.55901       -0.56360
C         -0.06358       -0.33323       -0.11257
H         -0.05972       -2.38445       -0.84548
H          2.12506       -2.80703       -1.26190
H          4.01169       -1.65795       -0.55323
N          4.10431        0.46464        0.51460
H          4.25732        1.20691        1.19434
H          4.79689       -0.25615        0.70810
H          2.36313        2.07761        0.54909
H          0.69063        3.09358        0.02716
H         -1.41851        3.61162       -0.69101
H         -3.31598        2.32539       -0.71469
N         -3.58390        0.28355        0.21957
H         -3.76410       -0.64179        0.60498
H         -4.43561        0.82572        0.34947
