30
Coordinates from ORCA-job ./opt_b97-3c_parallel
N         -3.86969       -3.45864        0.00281
C         -3.25889       -2.49224        0.00265
C         -2.52014       -1.24851        0.00179
C         -1.16381       -1.51793        0.00180
C         -0.00580       -0.73371        0.00075
C          1.13025       -1.55237        0.00026
C          2.54453       -1.25329       -0.00140
C          3.22863       -2.52799       -0.00228
N          4.01848       -3.35453       -0.00153
C          3.17470       -0.02862       -0.00156
C          2.51942        1.24968       -0.00032
C          3.25767        2.49335       -0.00024
N          3.86778        3.46057       -0.00020
C          1.16269        1.51898        0.00077
C          0.00545        0.73458        0.00067
C         -1.13100        1.55319        0.00071
C         -2.54544        1.25436        0.00035
C         -3.22878        2.52937       -0.00030
N         -4.01784        3.35678       -0.00022
C         -3.17486        0.02924        0.00074
N         -4.28828        0.02318        0.00048
H         -4.89938       -0.79179        0.00136
H         -4.89250        0.84383        0.00075
H         -0.94640        2.62648        0.00071
H          0.97701        2.59129        0.00132
N          4.28741       -0.02183       -0.00258
H          4.89043       -0.84366       -0.00167
H          4.90091        0.79202       -0.00166
H          0.94599       -2.62531        0.00044
H         -0.97784       -2.59036        0.00256
