25
Coordinates from ORCA-job ./opt_b97-3c_parallel
N         -0.69761       -4.21695       -0.12563
C         -0.73916       -3.07651       -0.09886
C         -0.83409       -1.64920       -0.09259
C         -1.93164       -1.15190       -0.76666
N         -2.60547        0.02302       -0.76013
C         -2.20629        1.12379        0.00088
N         -3.19237        1.62060       -0.05796
H         -4.20073        1.55079       -0.19615
H         -3.03800        2.51927        0.40157
C         -0.89914        1.29016        0.58160
C         -0.60494        2.42680        1.39895
N         -0.40706        3.35881        2.02790
C          0.19103        0.54524        0.25696
C          1.14495        1.07509       -0.57425
C          2.56130        0.79033       -0.50957
N          3.07661       -0.15462        0.30369
C          2.33260       -0.97326        1.05982
N          1.08175       -1.21440        1.28286
C          0.10723       -0.77929        0.54999
H          3.07058       -1.60454        1.57892
N          3.48997        1.12625       -0.99395
H          4.42172        0.76358       -0.79555
H          3.61942        2.07240       -1.34713
H          0.85998        1.83028       -1.30124
H         -2.67754       -1.71782       -1.34623
