23
Coordinates from ORCA-job ./opt_b97-3c_parallel
N          4.64906        1.29693       -0.96484
C          3.60462        0.97729       -0.63838
C          2.31679        0.52015       -0.20934
C          1.59459        1.58861        0.25510
C          0.27367        1.64278        0.38176
C         -0.60127        0.62204        0.11664
N         -1.82793        1.27385       -0.08732
C         -3.02555        0.58727       -0.15568
N         -3.62864       -0.63926       -0.05376
C         -2.65644       -1.57806        0.17350
N         -1.31271       -1.84899        0.31710
C         -0.37784       -0.81386        0.27798
N          0.85299       -1.46656        0.27442
C          2.08700       -0.88992       -0.02405
N          2.68437       -1.81260       -0.17812
H          2.80093       -2.68830       -0.69499
H          3.64533       -1.50921        0.00970
H         -3.30723       -2.46583        0.24499
N         -3.86634        1.27517       -0.36441
H         -3.81392        2.16440       -0.86644
H         -4.86755        1.13056       -0.21059
H         -0.11246        2.57716        0.79490
H          2.13709        2.48649        0.56228
