23
Coordinates from ORCA-job ./opt_b97-3c_parallel
N          4.74446        0.56060       -0.26782
C          3.65681        0.67434       -0.60055
C          2.63925        0.35066       -0.31377
C          1.73335        1.37089       -0.23084
N          0.40554        1.76096       -0.22238
C         -0.58128        0.78109       -0.35327
C         -1.80906        1.36359       -0.35696
C         -2.87090        0.67840        0.12726
N         -3.31724       -0.57262        0.03308
C         -2.58289       -1.57299       -0.48264
N         -1.20615       -1.66477       -0.67511
C         -0.28240       -0.63256       -0.52228
N          0.90034       -1.16909       -0.55272
C          2.05751       -0.85963       -0.04901
N          2.16753       -1.66756        0.70003
H          3.03926       -1.26382        1.04324
H          2.08915       -2.58477        1.13765
H         -3.22211       -2.46695       -0.55163
N         -3.81479        0.91016        0.64439
H         -4.75641        0.59170        0.87153
H         -3.67713        1.78005        1.15694
H         -1.96368        2.33176       -0.83233
H          1.79561        2.46560       -0.12073
