29
Coordinates from ORCA-job ./opt_b97-3c_parallel
N         -4.90899       -0.16345        1.10508
C         -3.81006       -0.13735        0.79222
C         -2.42832       -0.08048        0.36317
C         -1.89228        1.24342        0.45973
C         -0.65431        1.76709       -0.04852
C         -0.68990        3.20503       -0.09173
N         -0.74946        4.34657       -0.10611
C          0.59143        1.00252       -0.17789
C          1.72030        1.85559       -0.53930
C          3.12262        1.57677       -0.55822
C          3.79029        0.52238       -0.00711
C          3.19501       -0.66457        0.51440
N          3.95153       -1.36840        0.90765
H          4.96537       -1.30855        0.83409
H          3.72627       -2.35330        1.03422
C          1.90530       -1.12354        0.38304
C          0.68792       -0.44377       -0.04785
C         -0.34209       -1.33095       -0.38669
C          0.06866       -2.59233       -0.98552
N          0.32010       -3.63452       -1.38346
C         -1.78370       -1.15208       -0.24724
N         -2.45824       -2.01009       -0.49291
H         -3.44767       -2.10851       -0.27076
H         -2.11935       -2.94448       -0.71769
H          1.75634       -2.15219        0.70744
H          4.87516        0.61032        0.03170
H          3.72416        2.40546       -0.91904
H          1.54315        2.86917       -0.87265
H         -2.61100        1.99378        0.78778
