22
Coordinates from ORCA-job ./opt_b97-3c_parallel
N         -5.05606       -0.63547       -0.34490
C         -3.93824       -0.50336       -0.16334
C         -2.53049       -0.34798        0.01589
C         -1.92463        0.95627        0.16132
N         -0.59747        1.25384        0.18287
C          0.55337        0.53132        0.13436
N          1.70316        1.33156        0.05848
C          2.98273        0.80847       -0.01173
N          3.73478       -0.33819       -0.03181
C          2.88918       -1.41528        0.04899
N          1.58284       -1.84768        0.13398
C          0.52621       -0.93419        0.16194
N         -0.52972       -1.67165        0.24418
C         -1.78942       -1.50002        0.05686
H         -2.27529       -2.48473       -0.04861
H          3.59596       -2.26370        0.03610
N          3.78278        1.57090       -0.09438
H          3.82034        2.38787       -0.71091
H          4.69374        1.57608        0.37422
N         -1.99581        2.05482        0.21993
H         -2.93106        2.02174       -0.19069
H         -1.98207        2.90756        0.78225
