23
Coordinates from ORCA-job ./opt_b97-3c_parallel
N          5.13674        0.09675       -0.35814
C          4.00327        0.00005       -0.24181
C          2.58170       -0.08063       -0.09252
C          2.16495       -1.38425        0.00412
C          0.82859       -1.84472        0.20551
C         -0.34733       -1.11815        0.23883
N         -1.34460       -2.04288        0.56716
C         -2.66444       -1.82184        0.25158
C         -2.97017       -1.08810       -0.84422
C         -3.04551        0.09377       -0.18396
C         -1.88892        0.85264        0.22295
C         -2.21525        2.20775        0.57445
N         -2.49110        3.28935        0.82084
C         -0.61027        0.26135        0.15003
C          0.44062        1.26626        0.07588
C          1.80268        1.11469       -0.02442
H          2.39108        2.02594       -0.09021
H          0.15577        2.31054        0.04989
H         -4.01048        0.58988       -0.11431
H         -3.76160       -1.40345       -1.51942
H         -3.03305       -2.75775        0.69790
H          0.77112       -2.92672        0.30927
H          2.90978       -2.17613       -0.03793
