21
Coordinates from ORCA-job ./opt_b97-3c_parallel
N         -3.18865       -1.20209        0.83318
C         -2.32503       -0.53480        0.05243
C         -1.22471       -1.14706       -0.43654
C          0.10430       -0.64411       -0.24548
N          1.07650       -1.61372       -0.51109
C          2.40773       -1.29822       -0.33181
N          3.39645       -0.41459        0.04337
C          2.84833        0.76431        0.49961
N          1.59095        1.04917        0.61262
C          0.39492        0.71005        0.24370
C         -0.54059        1.82463        0.15330
C         -1.83750        1.84252       -0.32754
C         -2.65016        0.67648       -0.44530
H         -3.65450        0.82162       -0.83213
H         -2.30349        2.79687       -0.55057
H         -0.09745        2.79139        0.37645
H          3.62697        1.48020        0.80205
H          2.91639       -2.22154       -0.64527
H         -1.31333       -2.15862       -0.82340
H         -3.11787       -2.21404        0.92215
H         -4.17643       -0.95540        0.83017
