23
Coordinates from ORCA-job ./opt_b97-3c_parallel
N          4.21687        1.49329       -0.47835
C          3.44318        0.91820        0.13515
C          2.21324        0.18174        0.12527
C          2.40344       -1.17131        0.13782
C          1.37574       -2.14950        0.12450
C          0.02184       -1.95408        0.03692
C         -0.80377       -0.83305       -0.00460
C         -2.13374       -1.22081       -0.16032
C         -3.35142       -0.47333       -0.23479
C         -3.53541        0.87032       -0.09427
C         -2.52712        1.84461        0.12160
C         -1.17046        1.66230        0.17422
C         -0.33464        0.55171        0.10289
C          1.00130        0.94706        0.14673
H          1.21174        2.01297        0.18436
H         -0.68653        2.62564        0.30472
H         -2.90662        2.85750        0.21684
H         -4.54654        1.26257       -0.14288
H         -4.24589       -1.06811       -0.39204
H         -2.34993       -2.27956       -0.26863
H         -0.47364       -2.91968       -0.00191
H          1.74010       -3.17198        0.14817
H          3.41113       -1.57932        0.16143
