30
Coordinates from ORCA-job ./opt_b97-3c_parallel
N          5.28631        0.39574       -1.05427
C          4.19583        0.26420       -0.73898
C          2.82648        0.06421       -0.37033
C          2.48827       -1.02431        0.49245
C          1.18562       -1.60312        0.65978
C          1.20118       -2.87364        1.32949
N          1.21675       -3.86740        1.89395
C         -0.05133       -1.02133        0.15838
C         -1.09127       -2.00034       -0.08644
C         -2.32497       -1.69070       -0.75472
C         -3.12337       -0.58353       -0.56773
C         -2.77779        0.50131        0.32331
N         -3.77605        0.93535        0.55542
H         -4.73504        0.60341        0.63915
H         -3.70647        1.77336        1.13066
C         -1.48838        0.92672        0.62069
C         -1.48292        2.11275        1.44537
N         -1.47093        3.03042        2.12717
C         -0.27134        0.39959        0.02007
C          0.68108        1.34238       -0.35275
C          0.48438        2.71844       -0.72670
N          0.07300        3.59741       -1.33225
C          2.04140        1.11669       -0.78024
H          2.55722        1.91642       -1.31971
H         -4.14353       -0.64596       -0.96643
N         -2.81228       -2.54846       -1.25352
H         -2.24270       -3.26524       -1.69966
H         -3.72016       -2.56871       -1.71460
H         -0.80572       -3.04920       -0.09911
H          3.32572       -1.61933        0.84958
