27
Coordinates from ORCA-job ./opt_b97-3c_parallel
N          0.01227       -1.48471       -2.63373
C         -0.51833       -1.12675       -1.68738
C         -1.11223       -0.64347       -0.47670
C         -2.31862       -0.10940       -0.11257
C         -2.44442        1.18431        0.19594
C         -1.36496        2.02594        0.13888
N         -0.02721        2.09731        0.02792
C          0.70608        0.96806        0.00340
N          2.06165        1.13934       -0.27333
C          2.84428       -0.00831       -0.30579
C          2.70633       -1.35140       -0.09236
C          1.95655       -1.73126        0.98546
C          0.61541       -1.25645        1.20517
C          0.12986       -0.34910        0.19479
H          0.05048       -1.58925        2.07207
H          2.35861       -2.42482        1.71895
H          2.90581       -2.06663       -0.89039
N          3.85350        0.36612       -0.55850
H          4.22898        0.65796       -1.46257
H          4.66806        0.16066        0.02226
N         -1.33243        3.12868        0.12299
H         -2.32690        3.32380        0.00864
H         -0.89744        4.02307        0.34887
H         -3.41981        1.57795        0.48095
N         -3.32782       -0.99372       -0.10339
H         -3.16280       -2.00007       -0.09585
H         -4.20403       -0.80164        0.38239
