25
Coordinates from ORCA-job ./opt_b97-3c_parallel
N          2.45445        3.71011       -0.12940
C          2.19108        2.59919       -0.11842
C          1.82875        1.21404       -0.07446
C          3.08560        0.63158       -0.08987
N          3.53020       -0.63211       -0.07037
C          2.50360       -1.52998       -0.00013
N          1.17018       -1.84486        0.06576
C          0.24354       -0.80948        0.05032
N         -0.93045       -1.53962        0.14907
C         -2.24325       -1.09997        0.16251
N         -2.67321       -2.11702        0.26765
H         -2.98942       -2.63799        1.08957
H         -3.47929       -2.12568       -0.36349
C         -2.77061        0.23115        0.03208
C         -4.19326        0.37431        0.01348
N         -5.33311        0.43734       -0.00885
C         -1.99224        1.43456       -0.07078
C         -0.56687        1.61698       -0.06957
C          0.48592        0.62179       -0.02524
H         -0.29221        2.66461       -0.14004
H         -2.56379        2.35789       -0.14695
N          3.18585       -2.40079       -0.00367
H          3.97214       -2.53904        0.63535
H          3.32611       -3.08913       -0.74579
H          4.14889        0.92354       -0.12688
