29
Coordinates from ORCA-job ./opt_b97-3c_parallel
N         -5.55693        0.46575        0.88067
C         -4.44254        0.34032        0.66643
C         -3.04362        0.24518        0.38261
C         -2.35166       -0.99264        0.56154
C         -0.97164       -1.28794        0.26861
C         -0.60414       -2.61581        0.66842
N         -0.33004       -3.66497        1.02689
C          0.01821       -0.33140       -0.23504
C         -0.16883        1.08812       -0.42448
N         -1.29804        1.89341       -0.33312
C         -2.51308        1.45094       -0.00227
N         -2.73082        2.51998       -0.20703
H         -3.63940        2.55791        0.25811
H         -2.72659        3.30724       -0.85639
C          0.79823        1.90768       -0.91257
C          1.63326        2.03989        0.14940
C          2.62691        1.05096        0.44951
C          3.74003        1.44270        1.26946
N          4.60597        1.78227        1.93231
C          2.57257       -0.19526       -0.31025
C          1.31317       -0.85546       -0.69438
C          1.36934       -2.08094       -1.45318
N          1.39232       -3.03108       -2.08707
N          3.53358       -0.73507       -0.43812
H          4.46248       -0.40358       -0.17800
H          3.67393       -1.61768       -0.92972
H          1.71823        2.99601        0.66016
H          0.61072        2.72863       -1.60382
H         -2.95556       -1.81508        0.94135
