26
Coordinates from ORCA-job ./opt_b97-3c_parallel
N         -1.32179       -1.75075       -2.55756
C         -1.47044       -1.09769       -1.62870
C         -1.60282       -0.31619       -0.43682
C         -0.23491       -0.25343        0.03730
C          0.20218        1.08729       -0.28368
N          1.51639        1.49555       -0.45552
C          2.48252        0.55398       -0.17116
N          2.92199       -0.67712        0.27830
C          1.87677       -1.50435        0.64741
C          0.51615       -1.42826        0.55801
H         -0.10693       -2.31719        0.64645
N          2.50592       -2.35650        0.96733
H          3.50535       -2.45642        1.14868
H          2.09434       -3.26063        1.19746
N          3.33187        1.19051       -0.46745
H          3.22281        2.17189       -0.72595
H          4.19687        0.88410       -0.90867
N         -0.26939        2.28410       -0.42625
C         -1.46335        2.40593        0.06461
C         -2.61817        1.70492        0.27646
C         -2.67813        0.39102        0.04102
N         -3.79081       -0.34335        0.20110
H         -3.94310       -1.16260       -0.38631
H         -4.69210        0.12534        0.28963
H         -3.50027        2.23395        0.63276
H         -1.37954        3.01222        0.98012
