22
Coordinates from ORCA-job ./opt_b97-3c_parallel
N         -4.51650       -0.51381       -0.55609
C         -3.41151       -0.26785       -0.40170
C         -2.02563        0.01918       -0.17393
C         -1.83265        1.37876       -0.34745
N         -0.87712        2.29340       -0.07921
C          0.34019        1.89995        0.44651
C          0.89741        0.58405        0.39473
C          2.18258        1.24238        0.44667
N          3.35479        0.69859        0.08047
C          3.36629       -0.56837       -0.35881
N          2.59930       -1.59074       -0.57049
C          1.42389       -1.52284       -0.02793
C          0.31593       -0.76603        0.24778
C         -1.03530       -0.95784        0.21937
N         -1.27442       -2.01501        0.44680
H         -2.22235       -2.03964        0.81875
H         -0.68714       -2.52433        1.10456
H          1.27283       -2.29958       -0.79290
H          4.40260       -0.82479       -0.62569
H          2.92931        2.02454        0.65278
H          0.29453        2.99186        0.31086
H         -2.40195        2.27672       -0.63192
