26
Coordinates from ORCA-job ./opt_b97-3c_parallel
N         -3.71104       -1.97948        0.19564
C         -3.01256       -1.07537        0.17082
C         -2.08552        0.02051        0.13625
C         -2.57375        1.21164        0.75350
N         -2.22183        2.49419        0.42990
C         -1.15527        2.82641       -0.36364
C          0.03618        2.16135       -0.50057
C          0.32829        0.75550       -0.24530
C         -0.76021       -0.24516       -0.21250
N         -0.50158       -1.47700       -0.73083
C          0.61729       -2.14670       -0.30104
C          1.43115       -1.81999        0.73754
C          2.19265       -0.82935        0.19925
C          1.70389        0.44069       -0.29750
C          2.75923        1.35311       -0.64707
N          3.61885        2.06121       -0.90113
N          3.16897       -1.33049        0.37649
H          3.68677       -0.45300        0.44255
H          3.83621       -2.05912        0.63205
H          1.04467       -1.75048        1.75488
N          0.41196       -3.03668       -0.92343
H         -0.29186       -3.73981       -1.15014
H          1.30209       -3.40490       -1.25963
H          0.83288        2.81827       -0.82793
H         -1.11252        3.90658       -0.57451
H         -3.35656        1.81517        1.23783
