31
Coordinates from ORCA-job ./opt_b97-3c_parallel
N         -2.52559       -3.81616        0.42409
C         -2.15124       -2.74412        0.29720
C         -1.62269       -1.40826        0.13796
C         -0.30423       -1.55281       -0.24438
C          0.73743       -0.65216       -0.17346
C          1.97817       -1.15105       -0.59185
N          3.26036       -0.70763       -0.60959
C          3.58597        0.34786        0.22912
N          4.65865        0.59350        0.11098
H          5.57072        0.17670       -0.08196
H          4.86097        1.53573        0.44864
C          2.82159        0.79371        1.25598
C          1.74574        1.44563        0.75300
C          0.58548        0.73863        0.23015
C         -0.57838        1.55784       -0.09717
N         -0.39666        2.64764       -0.22687
H         -1.10180        3.16007        0.30382
H         -0.27490        3.16376       -1.09801
C         -1.97328        1.12333       -0.18740
C         -3.00113        2.10649       -0.47365
N         -3.78861        2.89926       -0.71727
C         -2.41185       -0.19651        0.23682
N         -3.48325       -0.39842        0.45810
H         -3.90866       -1.18595        0.94677
H         -4.20959        0.31377        0.38401
H          1.66769        2.50785        0.97249
H          3.23271        1.04355        2.23416
N          2.46459       -2.02100       -1.07920
H          1.72189       -2.04698       -1.77991
H          2.99365       -2.88412       -1.21878
H          0.01026       -2.56666       -0.49547
