23
Coordinates from ORCA-job ./opt_b97-3c_parallel
N         -0.52839       -3.42972       -0.77314
C         -1.17464       -2.66641       -0.21943
C         -1.21274       -1.23068       -0.16071
C         -0.14073       -0.29563        0.06553
N          1.00589       -0.92463        0.40064
C          2.11186       -0.10211        0.32930
N          2.75806        1.07812        0.01992
C          1.99668        2.09517       -0.55238
C          0.56226        2.01858       -0.70562
C         -0.22259        1.04279       -0.15518
C         -1.08612        1.66889        0.68613
C         -2.50448        1.52137        0.57870
C         -3.11807        0.45140       -0.17238
C         -2.51053       -0.83382       -0.45964
H         -3.23842       -1.56530       -0.80826
H         -4.19199        0.51616       -0.32247
H         -3.14303        2.27681        1.02749
H         -0.75105        2.49149        1.31467
H          0.10122        2.85675       -1.22218
H          2.65522        2.91404       -0.88079
N          2.87194       -0.81593        0.68840
H          3.86958       -0.65156        0.56168
H          2.77760       -1.79645        0.95227
