28
Coordinates from ORCA-job ./opt_b97-3c_parallel
N          3.89834        0.69044        0.08668
C          2.82186        0.43959        0.01824
C          2.45665       -0.85440       -0.24504
C          1.10238       -1.38556       -0.22353
C         -0.14347       -0.78202        0.00176
C         -1.16962       -1.80039        0.21830
C         -2.51901       -1.68531        0.41323
C         -3.33832       -0.60325        0.31984
C         -3.04488        0.69830        0.04227
C         -1.70511        1.25045       -0.08277
C         -0.43690        0.65269       -0.01561
C          0.58893        1.69096        0.01031
C          2.00765        1.60425        0.13941
H          2.50667        2.56405        0.26499
H          0.27422        2.72857        0.04667
N         -2.03468        2.30275       -0.22620
H         -1.33154        2.23264       -0.95937
H         -2.84135        2.76193       -0.64435
H         -3.94502        1.32525       -0.01647
H         -4.39337       -0.81469        0.46412
H         -3.02800       -2.62073        0.62578
H         -0.83433       -2.82916        0.29809
N          1.37420       -2.44849       -0.41223
H          2.10197       -2.78774       -1.03822
H          0.50618       -2.48324       -0.94305
H          3.31500       -1.52539       -0.40787
H          4.10417        1.45033        0.73135
H          4.32492       -0.14558        0.47949
