24
Coordinates from ORCA-job ./opt_b97-3c_parallel
N         -5.23925        0.55351        0.32215
C         -4.10756        0.46156        0.19752
C         -2.68770        0.37322        0.08410
C         -1.99044        1.56508        0.21269
N         -0.67697        1.89881        0.14974
C          0.23576        0.86015       -0.00462
N          0.91491        2.06726        0.04390
C          2.28754        1.90584        0.01884
N          3.29764        0.95508        0.00042
C          2.82640       -0.34891       -0.05058
N          3.93836       -0.43799        0.03788
H          4.91972       -0.26665       -0.20443
H          3.95056       -1.38576        0.43097
C          1.65546       -1.08746       -0.12642
C          1.77209       -2.19471       -0.19927
N          2.12090       -3.07613        0.44113
C          0.44764       -0.49068       -0.11161
N         -0.73734       -1.01050       -0.17374
C         -2.02465       -0.87879       -0.16630
N         -2.00037       -1.96417       -0.35132
H         -1.85837       -2.76475       -0.96844
H         -2.98506       -1.99431       -0.08450
H          2.69430        2.93077        0.04505
H         -2.54283        2.50423        0.38195
