34
Coordinates from ORCA-job ./opt_b97-3c_parallel
N         -1.56582       -3.77331       -1.81002
C         -1.68471       -2.94586       -1.03046
C         -1.66858       -1.60828       -0.47648
C         -2.95651       -1.08341       -0.34980
N         -3.93671       -1.54906       -0.60690
H         -3.84428       -2.42928       -1.11218
H         -4.90143       -1.24714       -0.72839
C         -3.36725        0.11822        0.35731
C         -2.51211        1.14367        0.73019
N         -3.19306        1.88347        1.21068
H         -4.14207        1.89014        1.57973
H         -2.76186        2.75811        1.50698
C         -1.17557        1.32624        0.41270
C         -0.61542        2.60401        0.80392
N         -0.20174        3.62757        1.10091
C         -0.19760        0.41897        0.01709
C         -0.38862       -0.99846       -0.12618
C          0.66146       -1.87688        0.11673
C          1.92047       -1.49371        0.72579
C          2.65135       -0.26369        0.47388
C          3.99323       -0.15761        1.00138
N          5.06424       -0.10273        1.39717
C          2.19781        0.63554       -0.57370
C          0.86285        0.89479       -0.85989
C          0.42269        1.79481       -1.90581
N          0.30773        2.67205       -2.63180
N          2.96015        1.26852       -1.08196
H          2.80695        2.14147       -1.58468
H          3.96760        1.16921       -0.96549
N          2.32652       -2.37339        1.26728
H          3.31588       -2.33002        1.50772
H          1.97099       -3.24608        1.65367
H          0.44700       -2.94380        0.16067
H         -4.44994        0.22159        0.55363
