27
Coordinates from ORCA-job ./opt_b97-3c_parallel
N          0.63635        4.02071        0.89326
C          0.65370        2.90418        0.65080
C          0.64383        1.49398        0.37648
C          1.98140        0.91444        0.33623
C          2.34546       -0.40348       -0.13713
C          3.69198       -0.64680       -0.55564
N          4.77002       -0.86333       -0.86447
C          1.40441       -1.48215       -0.05059
C          0.31442       -1.41476        0.75279
C         -0.62702       -0.57457        0.25911
N         -1.65227       -1.44719        0.22000
C         -2.96352       -1.18387       -0.12611
C         -3.56837       -0.02360       -0.54094
C         -2.96122        1.26594       -0.63578
C         -1.66829        1.60691       -0.32302
C         -0.57178        0.85163        0.07734
H         -1.51153        2.66927       -0.47695
H         -3.61580        2.06571       -0.97083
H         -4.62233       -0.06231       -0.80627
N         -3.34269       -2.21052        0.01882
H         -4.34413       -2.30235       -0.14580
H         -3.07495       -3.02230        0.57467
H          0.42497       -1.53782        1.83074
N          1.41857       -2.56007       -0.30700
H          1.12787       -3.49281       -0.59719
H          2.41446       -2.50395       -0.52195
H          2.80734        1.61369        0.45255
