32
Coordinates from ORCA-job ./opt_b97-3c_parallel
N         -3.60689       -2.46282       -1.32819
C         -2.76371       -1.80630       -0.92128
C         -1.70623       -0.96452       -0.37922
C         -2.03398        0.28451        0.30681
N         -3.10981        0.36358        0.60032
H         -3.84144       -0.34306        0.54008
H         -3.54996        1.21269        0.95041
C         -1.16364        1.37118        0.44571
C         -1.70774        2.58369        1.03288
N         -2.11132        3.54762        1.50096
C          0.06498        1.43374       -0.32892
N          0.44178        2.44297       -0.61123
H          1.43230        2.60119       -0.42522
H         -0.04008        3.30934       -0.37781
C          1.05799        0.38023       -0.15680
C          2.28463        0.46105       -0.93646
N          2.57731        1.05224       -1.82989
H          3.17295        1.01036       -2.65479
H          1.65822        1.35859       -2.14679
C          3.53174        0.12490       -0.42024
C          3.75120       -0.41805        0.89063
C          2.89310       -1.24366        1.57709
C          1.65373       -1.74548        1.06707
C          0.70577       -0.91644        0.35067
C         -0.46600       -1.58336       -0.20142
N         -0.28400       -2.66202       -0.42728
H         -0.95759       -3.22644       -0.94228
H          0.63854       -3.03334       -0.64924
H          1.28193       -2.66035        1.52026
H          3.29213       -1.78540        2.42872
H          4.76634       -0.34878        1.26782
H          4.46508        0.42476       -0.90946
