24
Coordinates from ORCA-job ./opt_b97-3c_parallel
N         -3.49481       -0.05510       -0.16015
C         -2.41723        0.10009        0.03707
N         -2.02835       -1.21690       -0.04167
C         -0.67805       -1.56278       -0.03481
C          0.50336       -0.71350       -0.10116
C          1.60269       -1.51600       -0.35384
N          2.90959       -1.32323       -0.54199
C          3.26018       -0.01966       -0.37667
N          2.98501        1.28588       -0.10112
C          1.66556        1.60952        0.12415
C          0.49635        0.74750        0.07832
C         -0.67769        1.45909        0.23861
N         -1.95725        1.29273        0.22787
N         -0.93630        2.53021        0.41132
H          0.00089        2.93822        0.40864
H         -1.54210        3.30761        0.68672
H          2.45664        2.37474        0.17643
H          4.34002       -0.10702       -0.57859
H          1.97361       -2.53488       -0.54707
N         -1.16595       -2.55227       -0.05872
H         -1.72772       -3.22854        0.46068
H         -0.21221       -2.91232       -0.02936
H         -3.98252       -0.95118       -0.10182
H         -4.06890        0.51778       -0.78048
