29
Coordinates from ORCA-job ./opt_b97-3c_parallel
N          4.66691        0.16036       -0.35422
C          3.83973       -0.36278        0.23746
C          2.42552       -0.08258        0.20049
C          2.32958       -1.45396        0.18947
N          1.20023       -2.24757        0.16324
C         -0.11929       -1.84760        0.05601
N         -0.14536       -2.95686        0.07948
H         -1.08978       -2.98315       -0.31046
H         -0.02801       -3.85588        0.55240
C         -0.73538       -0.53351       -0.07188
C         -2.16211       -0.71347       -0.33400
N         -2.74997       -1.64607       -0.47484
H         -3.10554       -1.86063       -1.40943
H         -3.51873       -1.85736        0.16563
C         -3.16623        0.30844       -0.54830
C         -2.96716        1.65368       -0.42874
N         -1.95959        2.46909       -0.11243
C         -0.66393        2.04739        0.11589
N         -0.63050        3.15274        0.22311
H          0.37850        3.26779        0.11150
H         -0.95047        4.01517        0.66953
C         -0.02520        0.73604        0.07397
C          1.35374        0.88968        0.21580
N          2.01207        1.77905        0.31469
H          2.57721        1.94583        1.15060
H          2.63594        1.97070       -0.47335
H         -3.87484        2.25324       -0.60436
H         -4.19020        0.01235       -0.80063
H          2.64971       -2.51023        0.19025
