30
Coordinates from ORCA-job ./opt_b97-3c_parallel
N         -0.28942       -3.30252       -0.27727
C         -0.91660       -2.50212        0.25198
C         -1.08763       -1.06417        0.21364
C         -2.38882       -0.64991       -0.06305
C         -2.93375        0.68944       -0.01273
C         -2.18567        1.83093        0.15139
C         -0.82789        2.04113        0.18929
C          0.21386        1.13567        0.24457
C          1.51949        1.79148        0.14998
C          2.75108        1.20862       -0.15099
N          3.10329       -0.12877       -0.34315
C          2.27743       -1.14587        0.08533
N          2.71966       -2.14097       -0.10734
H          3.54633       -2.66223        0.18883
H          2.02311       -2.84976       -0.35264
C          1.23607       -0.93658        0.92160
C          0.13156       -0.29512        0.45366
H          1.27049       -1.27938        1.95621
N          3.70591        1.69879       -0.41720
H          3.50911        2.40892       -1.12438
H          4.69614        1.80771       -0.19259
H          1.51705        2.87944        0.14685
H         -0.53312        3.09129        0.17035
N         -2.79336        2.75650        0.16433
H         -2.58925        3.71361        0.44799
H         -3.80142        2.64477        0.26744
H         -4.01885        0.80819       -0.13317
N         -3.28496       -1.27586       -0.26886
H         -3.28042       -2.16386       -0.76892
H         -4.26581       -1.02626       -0.14630
