27
Coordinates from ORCA-job ./opt_b97-3c_parallel
N         -1.56490       -3.47410        1.43775
C         -1.53958       -2.44324        0.94573
C         -1.50695       -1.12642        0.37598
C         -2.86055       -0.83464        0.49045
N         -3.65869        0.20352        0.17259
C         -3.00825        1.30682       -0.32224
N         -1.76237        1.59108       -0.46284
C         -0.61771        1.09296       -0.14400
C          0.41675        2.05119        0.11524
C          1.57555        1.76410        0.74798
C          2.44004        0.99897        0.04528
C          3.67247        1.74972        0.00266
N          4.65218        2.33748        0.00312
C          2.15555       -0.34892       -0.41637
N          3.12000       -0.75453       -0.80372
H          4.09661       -0.46509       -0.75247
H          3.10121       -1.59942       -1.37411
C          0.87896       -0.90898       -0.21389
C          0.95775       -2.30521       -0.59446
N          0.58197       -2.75655       -1.57806
C         -0.35985       -0.26897        0.02309
H          1.76569        2.07168        1.77558
H          0.18575        3.10137       -0.04421
N         -3.82033        1.99820       -0.59957
H         -3.65082        2.81959       -1.17891
H         -4.80229        1.75709       -0.73176
H         -3.82367       -1.28271        0.78432
