29
Coordinates from ORCA-job ./opt_b97-3c_parallel
N         -3.09737       -3.10572        0.88560
C         -2.36812       -2.27599        0.58818
C         -1.41164       -1.23735        0.23381
C          0.00016       -1.58383        0.13842
N          0.28066       -2.65140        0.28092
H         -0.31584       -3.35699        0.71066
H          1.20539       -2.75502        0.69498
C          0.99049       -0.64639       -0.35546
C          2.17692       -1.22171       -0.96499
C          3.18526       -0.45511       -1.45127
C          3.87670       -0.09513       -0.34354
N          3.60603        0.73780        0.71523
C          2.31499        1.10701        0.80575
C          1.09449        0.64647        0.29514
C         -0.07700        1.49045        0.51167
N          0.15929        2.47997        0.97669
H         -0.52131        3.23701        1.01643
H          1.06667        2.91379        0.81937
C         -1.29422        1.27455       -0.14120
C         -2.06117        2.46715       -0.47908
N         -2.49512        3.38140       -1.01324
C         -1.92888       -0.03967       -0.27299
N         -2.98869       -0.00689       -0.62946
H         -3.58825       -0.82618       -0.71599
H         -3.51103        0.77894       -1.01494
H          2.92865        1.82350        1.37223
H          4.96022       -0.26526       -0.25517
H          3.70112       -0.72576       -2.36925
H          2.15621       -2.26901       -1.25154
