36
Coordinates from ORCA-job ./opt_b97-3c_parallel
N          4.68242        1.16809        2.01559
C          3.77316        0.85162        1.40162
C          2.65505        0.39053        0.61317
C          3.00112       -0.82194        0.04356
N          2.44836       -1.55819       -0.94330
C          1.13336       -1.36377       -1.36579
N          1.48395       -2.18972       -2.01932
H          1.51125       -2.19755       -3.04101
H          0.63972       -2.71279       -1.76986
C          0.11720       -0.77327       -0.50838
C         -1.03856       -1.53253       -0.31473
N         -1.01863       -2.61497       -0.58749
H         -1.05590       -3.12553        0.29816
H         -1.94848       -2.71864       -0.99926
C         -2.06699       -1.08300        0.62192
C         -2.76976       -2.09399        1.39824
N         -2.25232       -2.53602        2.31884
C         -2.55838        0.22738        0.62807
N         -3.48739        0.47454        1.19279
H         -4.10494        1.26491        1.00567
H         -3.93346       -0.05967        1.93815
C         -2.12473        1.26603       -0.29990
C         -3.00614        2.35705       -0.67655
N         -3.69004        3.21027       -1.00753
C         -0.79186        1.42396       -0.68759
N         -0.41105        2.24722       -1.33964
H          0.20399        3.01352       -1.06610
H         -1.14404        2.67075       -1.91059
C          0.27809        0.56016       -0.19376
C          1.46154        1.15205        0.27526
N          1.54107        2.19327        0.65989
H          0.63418        2.62283        0.84543
H          2.23745        2.88240        0.94823
N          3.81147       -1.58383       -0.01421
H          4.59396       -1.96897       -0.54644
H          4.18581       -1.43193        0.92550
