23
Coordinates from ORCA-job ./opt_b97-3c_parallel
N         -2.73067       -1.76144       -0.24748
C         -1.84441       -1.19666        0.08631
N         -2.54083       -0.03809       -0.21933
C         -1.80075        1.10812        0.01297
N         -0.58741        1.35520        0.39873
C          0.50830        0.66503        0.28420
C          1.57042        1.54746        0.09088
C          2.94508        1.18302       -0.13133
C          3.49716       -0.04925       -0.25455
C          2.79231       -1.15125        0.06939
N          1.55897       -1.66882        0.34446
C          0.48931       -0.79178        0.38786
C         -0.63633       -1.53413        0.62588
H         -0.60625       -2.31976        1.38084
H          3.45146       -2.03162        0.12467
H          4.48315       -0.15443       -0.70275
H          3.62427        2.02197       -0.25035
H          1.38457        2.61944        0.09238
N         -2.43992        1.97905       -0.20860
H         -3.42839        1.86561       -0.42884
H         -2.32736        2.93467        0.12547
H         -2.29029       -2.67828       -0.31447
H         -3.70666       -1.89466       -0.50940
