26
Coordinates from ORCA-job ./opt_b97-3c_parallel
N         -2.53015       -2.92610        1.25820
C         -2.22378       -1.90300        0.85222
C         -1.80326       -0.61573        0.37495
C         -0.44091       -0.36820        0.12601
C          0.42478       -1.43706       -0.07511
C          1.78264       -1.47140       -0.31139
N          2.27828       -2.43882       -0.51532
H          1.62379       -3.22023       -0.55062
H          3.14958       -2.79238       -0.91020
C          2.72688       -0.39058       -0.28977
C          2.42840        0.92708       -0.04299
N          1.21456        1.56669        0.12105
C         -0.00966        1.00542        0.13125
C         -0.70920        2.12635        0.42758
C         -1.65295        2.36274       -0.51329
C         -2.82014        1.54906       -0.61545
C         -2.91206        0.27996        0.06910
H         -3.91187       -0.13909        0.15223
H         -3.70105        1.95560       -1.10048
H         -1.68202        3.31886       -1.02920
H         -0.87849        2.42437        1.46190
N          3.03513        1.84461        0.05030
H          3.97182        1.52652        0.29602
H          2.98714        2.82206        0.33522
H          3.77684       -0.63447       -0.45390
H         -0.03246       -2.42263       -0.11466
