36
Coordinates from ORCA-job ./opt_b97-3c_parallel
N          4.61123        1.85494       -1.13354
C          3.70198        1.27647       -0.75010
C          2.56354        0.55353       -0.22800
C          2.75320       -0.19958        0.99321
N          3.64587       -0.22824        1.65132
H          4.12535       -0.73676        2.39127
H          4.25269        0.54577        1.38591
C          1.96944       -1.36796        1.33620
C          0.98180       -1.90154        0.42838
N          0.91197       -2.98946        0.63044
H          1.28408       -3.62488        1.33322
H         -0.03891       -3.29687        0.42805
C         -0.09580       -1.05862       -0.05234
C         -0.99991       -1.67640       -1.00036
N         -0.92227       -2.62941       -1.56549
H          0.09483       -2.69602       -1.58093
H         -1.25033       -2.95466       -2.47308
C         -2.33407       -1.30939       -1.11966
C         -2.96253       -0.37226       -0.20199
N         -4.02964       -0.68851       -0.23839
H         -4.60958       -0.06180        0.31576
H         -4.56527       -1.54429       -0.36919
C         -2.35149        0.68805        0.46805
C         -3.28089        1.44943        1.27561
N         -3.99821        2.03840        1.94437
C         -1.06032        1.22971        0.07138
N         -0.89614        2.30904        0.28892
H         -1.58691        2.96319        0.65442
H          0.01918        2.65513        0.57268
C          0.06778        0.35372       -0.23905
C          1.28589        0.86592       -0.68867
N          1.14605        1.61534       -1.50353
H          0.24525        2.03414       -1.73010
H          1.85489        2.13973       -2.01341
H         -2.99529       -1.90865       -1.76743
H          2.36680       -2.03129        2.11342
