28
Coordinates from ORCA-job ./opt_b97-3c_parallel
N         -2.47001       -2.86940        1.23655
C         -1.53730       -2.30188        0.89650
C         -0.34453       -1.62686        0.45783
C         -0.38903       -0.25361        0.19855
C          0.68701        0.62231        0.17288
N          0.63433        1.93954        0.61791
C         -0.44182        2.56165        1.20843
C         -1.73065        2.47877        0.75568
C         -2.20139        1.49738       -0.09998
C         -1.65378        0.24188       -0.35610
C         -2.46203       -0.54419       -1.26547
N         -2.49014       -0.95027       -2.33323
N         -3.17920        1.92791       -0.41752
H         -3.58684        1.40055       -1.18800
H         -3.49766        2.88896       -0.52604
H         -2.36236        3.31415        1.07875
H         -0.41537        3.53594        1.71910
C          2.02564        0.29926       -0.28938
C          2.95717        1.34099       -0.66507
N          3.68854        2.15295       -1.00532
C          2.59012       -0.96038       -0.45172
C          2.09226       -2.20023        0.10300
C          0.83501       -2.43431        0.59738
H          0.65370       -3.43855        0.97255
H          2.73596       -3.08528        0.13977
N          3.58594       -1.29787       -0.81846
H          4.17486       -2.11752       -0.95280
H          4.08988       -0.50965       -1.22256
