29
Coordinates from ORCA-job ./opt_b97-3c_parallel
N         -5.64019       -1.42107        0.51977
C         -4.53737       -1.15833        0.38470
C         -3.17341       -0.77208        0.21355
C         -2.76064        0.59117        0.33684
N         -1.48869        1.10460        0.16440
C         -0.27893        0.46186       -0.12560
C         -0.13648       -0.95411       -0.34250
C          0.98075       -1.56696       -0.79836
C          2.02468       -1.50108        0.06327
C          2.78433       -0.29944        0.26784
C          4.10590       -0.49621        0.81736
N          5.16310       -0.63635        1.22727
C          2.26339        0.94425       -0.13487
C          0.83469        1.31215       -0.26898
C          0.55971        2.72853       -0.43460
N          0.00198        3.72663       -0.42459
N          3.03060        1.75354       -0.18638
H          2.99767        2.65842       -0.65491
H          4.01496        1.58287        0.02079
N          2.15247       -2.58441        0.25585
H          1.74013       -3.50389        0.40904
H          3.14140       -2.67244        0.49014
H          1.15492       -1.66108       -1.87094
N         -1.06090       -1.98569       -0.35981
C         -2.35909       -1.82526       -0.09762
H         -2.48444       -2.90856       -0.25167
N         -3.10911        1.61965        0.54722
H         -4.11669        1.51959        0.67567
H         -2.89765        2.59631        0.75537
