21
Coordinates from ORCA-job ./opt_b97-3c_parallel
N          3.56629       -0.05411        0.03344
C          2.48260        0.15604        0.07859
N          2.21471       -1.19433        0.09840
C          0.88276       -1.60612        0.10902
C         -0.31263       -0.77855        0.05689
C         -1.47830       -1.62265        0.04272
C         -2.83794       -1.18583       -0.03791
C         -3.27495        0.11067       -0.10006
N         -2.74632        1.33594       -0.10160
C         -1.39155        1.57781       -0.04266
C         -0.27926        0.67261        0.01681
C          0.92638        1.32842        0.03638
N          2.21282        1.42033        0.06994
H          1.02167        2.42614        0.01402
H         -1.93849        2.53240       -0.08628
H         -4.36350        0.26279       -0.16280
H         -3.57658       -1.98184       -0.05205
H         -1.33024       -2.69885        0.08020
H          1.13929       -2.67616        0.14117
H          4.29032       -0.66757        0.40601
H          4.01043        0.49912       -0.69825
