24
Coordinates from ORCA-job ./opt_b97-3c_parallel
N         -5.60255       -0.86724       -0.20563
C         -4.48943       -0.61823       -0.12830
C         -3.10418       -0.27806       -0.06188
C         -2.31154       -1.37814       -0.07956
N         -1.01143       -1.63432       -0.02484
C          0.05273       -0.73701        0.01383
C         -0.06053        0.73283        0.01439
N          1.00337        1.63022       -0.03043
C          2.30308        1.37429       -0.09424
C          3.09606        0.27436       -0.08258
C          4.48098        0.61493       -0.16013
N          5.59317        0.86383       -0.24590
C          2.65443       -1.06831        0.02787
C          1.29425       -1.53757        0.06369
C          1.25901       -2.97806        0.14898
N          1.26699       -4.11838        0.23193
H          3.44182       -1.81834        0.05803
H          2.42027        2.46758       -0.14597
C         -1.30160        1.53362        0.07186
C         -1.26585        2.97401        0.15724
N         -1.27341        4.11431        0.24057
C         -2.66197        1.06459        0.04499
H         -3.44915        1.81452        0.08048
H         -2.42868       -2.47145       -0.13081
