24
Coordinates from ORCA-job ./opt_b97-3c_parallel
N         -4.96880       -0.81592       -0.10500
C         -3.83742       -0.66952       -0.06842
C         -2.41563       -0.49011       -0.06266
C         -1.80429        0.80540        0.03520
N         -0.73877        1.08604        0.03469
C          0.28699        0.69151       -0.08143
C          1.16832        1.74760       -0.16557
C          2.51696        1.63413        0.00757
N          3.54294        0.71551        0.13299
C          3.08331       -0.58282        0.03221
N          1.91238       -1.08995       -0.19351
C          0.67458       -0.70089       -0.14004
C         -0.22747       -1.75910       -0.15281
C         -1.67573       -1.66038       -0.14131
H         -2.20880       -2.60631       -0.19458
H          0.15841       -2.77441       -0.20540
N          3.99513       -1.17739        0.20197
H          4.98043       -0.92577        0.13333
H          3.95138       -2.00647        0.79305
H          3.03726        2.60307        0.05471
H          0.80443        2.73777       -0.45143
N         -2.22452        1.82440        0.13408
H         -3.21967        1.60199        0.14966
H         -2.08936        2.58387        0.79726
