32
Coordinates from ORCA-job ./opt_b97-3c_parallel
N         -0.53228       -4.39239       -0.14986
C         -0.76955       -3.27592       -0.10256
C         -1.00106       -1.85681       -0.03527
C         -2.27404       -1.61646       -0.51876
C         -3.00975       -0.39056       -0.31849
C         -4.32909       -0.70606       -0.80825
N         -5.44584       -0.71042       -1.04898
C         -2.58282        0.66307        0.47142
N         -3.40160        1.31356        0.84439
H         -3.35015        2.22395        1.30121
H         -4.39014        1.14936        0.65217
C         -1.21148        1.08338        0.67498
C         -0.90622        2.17548        1.57414
N         -0.62511        3.01384        2.29835
C         -0.07980        0.47752        0.12303
C          0.06515       -0.89625        0.18284
N          1.24706       -1.54976        0.54085
C          2.54995       -1.08662        0.57542
C          3.06450        0.02514       -0.07118
C          4.46299       -0.33941        0.02148
N          5.40541       -0.97540        0.14620
C          2.27573        1.09232       -0.65443
C          0.92592        1.30633       -0.38809
C          0.52214        2.56032       -0.98967
N          0.18435        3.53052       -1.48903
N          3.07285        1.68802       -1.15513
H          4.03061        1.65483       -1.50585
H          2.67493        2.54976       -1.53144
N          2.52267       -2.06415        1.11114
H          3.53807       -1.97671        1.19026
H          2.30138       -2.96245        1.54395
H         -2.81999       -2.45987       -0.95233
