22
Coordinates from ORCA-job ./opt_b97-3c_parallel
N         -5.13138        0.11568       -0.08105
C         -3.99262        0.03785       -0.10491
C         -2.56721       -0.07589       -0.09514
C         -2.02181       -1.34783       -0.05581
C         -0.60493       -1.65968        0.00723
C          0.44266       -0.74880        0.06631
N          1.70017       -1.34899        0.15715
C          2.82078       -0.56171       -0.00667
N          3.41517        0.65922       -0.22569
C          2.47218        1.66162       -0.17788
C          1.18659        1.66228        0.27419
C          0.24826        0.69172        0.00924
N         -0.65493        1.30118       -0.14860
C         -1.73182        1.08165       -0.13480
H         -2.23340        2.06138       -0.16561
H          0.98261        2.37933        1.07473
H          2.90415        2.66059       -0.34283
N          3.65182       -1.28470        0.03000
H          4.59078       -1.12353       -0.33229
H          3.67686       -2.18987        0.49737
H         -0.36970       -2.72017        0.03565
H         -2.69644       -2.20016       -0.05812
