28
Coordinates from ORCA-job ./opt_b97-3c_parallel
N          4.99833        0.16779        0.31940
C          3.88632       -0.01765        0.13709
C          2.48600       -0.20519       -0.08235
C          1.47216        0.63136        0.51026
N          1.56430        1.45222        1.24783
H          1.28815        2.29556        1.74986
H          2.55674        1.32555        1.44788
C          0.15573        0.59042        0.14404
C         -0.76422        1.43943       -0.41260
N         -2.12070        1.51861       -0.66152
C         -2.81165        0.41689       -0.18763
N         -2.84198       -0.81287        0.46078
C         -1.61306       -1.35651        0.83776
N         -1.87325       -2.21964        1.48452
H         -1.05048       -2.81637        1.58703
H         -2.54432       -2.57876        2.16718
C         -0.32147       -0.75070        0.57318
C         -0.17311       -1.46503       -0.67931
N          1.00111       -1.80298       -1.33213
C          2.16428       -1.23424       -0.94932
H          2.88044       -1.84770       -1.51933
H         -0.23879       -2.21639       -1.48265
N         -3.82306        0.74105       -0.49799
H         -3.98316        1.51141       -1.15033
H         -4.75238        0.36572       -0.30370
N         -0.72321        2.44387       -0.86529
H         -1.06777        3.40521       -0.85607
H          0.29417        2.51596       -0.87114
