25
Coordinates from ORCA-job ./opt_b97-3c_parallel
N         -3.72943       -0.74108       -1.71760
C         -3.50702       -0.22327       -0.72314
C         -2.16703        0.04004       -0.25540
C         -2.20218        1.46462       -0.04416
C         -1.28894        2.11608        0.70666
C         -0.11011        2.20430        0.05326
C          0.77771        1.08411       -0.06180
C          2.10214        1.54182       -0.37427
N          3.22676        0.82655       -0.44668
C          3.45529       -0.45990       -0.18417
N          2.62321       -1.46647        0.26585
C          1.25098       -1.39045        0.42811
N          1.48972       -2.45040        0.63795
H          0.49474       -2.51409        0.41476
H          1.64843       -3.10521        1.40289
C          0.34282       -0.27982        0.20871
C         -1.06203       -0.72134        0.14034
N         -1.38382       -1.78504        0.18917
H         -1.78259       -1.94385       -0.73886
H         -2.16934       -1.84421        0.83963
H          4.53332       -0.37987       -0.39457
H          2.64887        2.46889       -0.60593
H          0.28753        3.18922       -0.18036
H         -1.59493        2.88502        1.41298
H         -3.06444        2.05111       -0.36361
