25
Coordinates from ORCA-job ./opt_b97-3c_parallel
N         -5.26739        0.60718        0.72233
C         -4.17370        0.39062        0.47444
C         -2.80893        0.08003        0.18716
C         -2.21391       -1.14681        0.60883
N         -0.94364       -1.47514        0.29042
C          0.15182       -0.74401       -0.03673
N          1.24714       -1.56575       -0.30458
C          2.54457       -1.11975       -0.21277
C          3.05704       -0.09293        0.50542
C          2.68155        1.15864        0.14909
N          3.50884        1.88832        0.14413
H          4.51082        1.96299        0.32308
H          3.14991        2.84064        0.22369
C          1.34184        1.60397       -0.11141
C          0.17904        0.72986       -0.07790
C         -1.02788        1.49470       -0.27239
C         -2.19873        0.93885       -0.65863
H         -2.65193        1.20259       -1.61335
H         -0.94901        2.57845       -0.29752
H          1.19464        2.66902       -0.28466
H          3.65579       -0.27401        1.39975
N          3.10311       -2.00821       -0.56235
H          4.05755       -1.72555       -0.79096
H          3.04150       -2.99305       -0.82554
H         -2.94949       -1.81688        1.08124
