31
Coordinates from ORCA-job ./opt_b97-3c_parallel
N         -4.14911       -1.97080        0.98439
C         -3.28839       -1.33200        0.58768
C         -2.17183       -0.54231        0.11775
C         -0.91903       -1.05114       -0.28722
N         -0.96626       -2.15563       -0.43537
H         -1.87388       -2.46367       -0.78639
H         -0.59803       -2.93767        0.10541
C          0.33635       -0.40287       -0.30325
C          1.44324       -1.26927       -0.73954
N          2.81445       -1.09928       -0.54844
C          3.26681       -0.07536        0.25371
N          2.78200        0.86197        0.98348
C          1.80276        1.51756        0.46648
C          0.56837        0.94606       -0.00704
C         -0.43637        1.94996       -0.20075
N         -0.45484        3.05331       -0.09879
H          0.02198        3.60945       -0.80793
H         -1.30382        3.56723        0.13919
C         -1.67340        1.73172       -0.72118
C         -2.43227        0.87363        0.01344
N         -3.28128        1.54796        0.23903
H         -3.93726        0.91337        0.69395
H         -3.68093        2.48155        0.31945
H         -1.82830        1.79772       -1.79994
H          2.12250        2.54006        0.72018
N          4.35004       -0.21528        0.40717
H          4.72306       -1.13141        0.15970
H          4.68286       -0.02005        1.35084
N          1.99191       -2.15421       -1.11581
H          0.98706       -2.26239       -1.25191
H          2.43076       -2.54008       -1.95226
