29
Coordinates from ORCA-job ./opt_b97-3c_parallel
N         -4.78550       -1.11747        0.69692
C         -3.68690       -0.85738        0.51153
C         -2.28780       -0.55963        0.24612
C         -1.39318       -1.68897        0.35340
N         -1.65732       -2.74291        0.58302
H         -1.38557       -3.72220        0.65322
H         -2.67518       -2.73522        0.65829
C         -0.04236       -1.75929       -0.14779
C          0.89887       -0.68470       -0.30914
C          2.09587       -1.07998       -0.81925
C          3.24644       -1.06786       -0.11164
N          3.82219       -0.03100        0.57354
C          3.10873        1.14972        0.73249
C          1.78238        1.46712        0.46748
C          0.66755        0.69453        0.07421
C         -0.57494        1.31796       -0.11944
C         -0.51729        2.75406       -0.34898
N         -0.20141        3.64602       -0.99214
C         -1.91539        0.72337       -0.17548
N         -2.76162        1.41713       -0.41192
H         -2.73038        2.40321       -0.66933
H         -3.73669        1.13404       -0.49936
H          1.60618        2.49912        0.75140
H          3.71140        1.96015        1.17170
N          4.20153       -1.62266       -0.06155
H          5.18490       -1.35191       -0.08079
H          4.16799       -2.56768       -0.44298
H          2.10189       -1.53492       -1.80807
H          0.39359       -2.74969       -0.31119
