29
Coordinates from ORCA-job ./opt_b97-3c_parallel
N          5.58844        1.19910       -0.93892
C          4.51426        0.98946       -0.60986
C          3.15496        0.75934       -0.22389
C          2.53775        1.64078        0.71528
C          1.13197        1.78483        0.92874
C          0.06601        0.94040        0.42216
C         -1.24184        1.59501        0.36135
C         -1.36586        3.01451        0.59941
N         -1.46980        4.14232        0.75490
C         -2.31989        0.96265       -0.38056
N         -3.13672        1.53688       -0.87048
H         -4.06353        1.26664       -1.19744
H         -3.05873        2.54299       -1.01253
C         -2.74232       -0.35071       -0.22667
C         -3.95157       -1.04897       -0.60082
N         -5.02873       -1.30102       -0.88911
C         -2.07125       -1.33808        0.58021
C         -0.70005       -1.37125        0.73481
C         -0.38445       -2.62624        1.36489
N         -0.13565       -3.60624        1.89772
C          0.26754       -0.46392        0.14058
C          1.43424       -1.05343       -0.33640
C          1.62152       -2.38844       -0.84270
N          1.39617       -3.24255       -1.56839
C          2.67559       -0.42538       -0.73218
H          3.37948       -0.99885       -1.34181
H         -2.64347       -2.21114        0.90977
H          0.89244        2.69885        1.45909
H          3.15602        2.44214        1.11034
