29
Coordinates from ORCA-job ./opt_b97-3c_parallel
N         -3.74030       -2.13537        0.98010
C         -2.97790       -1.35053        0.65240
C         -1.98036       -0.40430        0.23420
C         -2.37114        0.68685       -0.54631
C         -1.67052        1.96936       -0.64388
C         -0.44555        2.24562       -0.06334
C          0.53408        1.22901        0.18034
C          1.75922        1.62883        0.83605
N          2.90197        0.82933        0.89697
C          2.98221       -0.27398        0.06543
N          2.48034       -1.11177       -0.91966
C          1.15477       -0.86062       -1.24066
N          0.76385       -1.47806       -2.07262
H         -0.23047       -1.71103       -2.10681
H          1.14963       -1.84021       -2.94680
C          0.32571       -0.08831       -0.34397
C         -0.60679       -0.63568        0.60761
N         -0.10097       -1.39586        1.23949
H         -0.88347       -2.05074        1.20093
H          0.11699       -1.29235        2.23113
N          4.00895       -0.51074        0.39864
H          4.77202        0.11524        0.66166
H          4.34459       -1.44969        0.61659
H          2.02932        2.57188        1.33686
H         -0.13954        3.27567        0.09937
H         -2.20104        2.83334       -1.05155
N         -3.36088        0.88841       -0.99902
H         -3.83631        1.72640       -1.33491
H         -4.10086        0.25628       -0.69193
