28
Coordinates from ORCA-job ./opt_b97-3c_parallel
N          4.78559        2.29690       -0.11992
C          3.97722        1.50947        0.05547
C          2.95957        0.51648        0.21837
C          1.70880        0.97968       -0.14593
C          0.40684        0.30869       -0.07433
C         -0.67642        1.19893       -0.20176
N         -0.61205        2.30748       -0.25697
H          0.15674        2.72737        0.26876
H         -1.09442        3.08849       -0.70628
C         -2.10692        0.90573       -0.12708
C         -3.21444        1.83449       -0.06267
N         -4.12147        2.52615        0.00530
C         -2.67820       -0.34697       -0.15379
N         -2.12751       -1.55629       -0.28803
C         -0.84424       -1.95209       -0.27896
N         -1.19199       -3.00008       -0.40245
H         -0.22882       -3.33773       -0.37745
H         -1.69617       -3.71156       -0.93541
C          0.32421       -1.14730        0.01959
C          1.32815       -2.03837        0.33546
N          2.60367       -1.88455        0.80883
C          3.31349       -0.71324        0.84214
H          4.23291       -1.15305        1.25774
H          1.86394       -2.97633        0.54488
N         -3.61926       -0.94349       -0.14053
H         -4.05742       -0.21598        0.42989
H         -4.40405       -1.47509       -0.52219
H          1.70880        2.01464       -0.48213
