20
Coordinates from ORCA-job ./opt_b97-3c_parallel
N         -2.81810       -1.39542        0.16708
C         -2.22569       -0.47535        0.03016
N         -1.08721       -1.19334        0.06172
C          0.15275       -0.64473        0.09613
N          1.09768       -1.53141        0.02378
C          2.35906       -1.58405       -0.28508
C          3.21357       -0.61706        0.15740
C          2.72047        0.63586        0.38105
N          1.57594        1.33935        0.43564
C          0.34777        0.79540        0.27310
N         -0.59230        1.68820        0.34604
C         -1.82330        1.82797       -0.03417
C         -2.71781        0.79751       -0.04356
H         -3.74092        0.97337       -0.37409
H         -2.14545        2.59517       -0.75809
H          3.54258        1.33347        0.60898
H          4.28932       -0.79313        0.15671
H          2.84166       -2.06728       -1.14988
H         -3.79375       -1.09419        0.14628
H         -2.83234       -2.31928        0.60261
