24
Coordinates from ORCA-job ./opt_b97-3c_parallel
N         -2.25773       -3.47099        0.12782
C         -1.88188       -2.39353        0.12228
C         -1.37762       -1.05288        0.08956
C         -2.54896       -0.32138        0.19482
N         -2.83501        0.98753        0.21825
C         -1.71453        1.75893        0.09061
N         -0.35981        1.92233       -0.04670
C          0.44268        0.78870       -0.04560
N          1.70194        1.33223       -0.32001
C          2.86281        0.59871       -0.17529
C          2.97949       -0.53010        0.56330
C          2.36323       -1.62933        0.07083
C          0.94626       -1.74480       -0.11959
C          0.02115       -0.62185        0.00914
H          0.58167       -2.75301       -0.29331
H          2.92990       -2.55120       -0.03556
H          3.32762       -0.50341        1.59619
N          3.82083        1.06977       -0.47192
H          4.65168        0.49060       -0.32942
H          4.16146        1.88126       -0.99163
N         -2.26846        2.71671        0.11541
H         -3.15488        2.89272       -0.36320
H         -2.12694        3.53490        0.71066
H         -3.63390       -0.50131        0.28137
