28
Coordinates from ORCA-job ./opt_b97-3c_parallel
N          2.96903        3.00887        0.01397
C          2.46879        1.98221        0.04546
C          1.78223        0.71399        0.08361
C          2.61236       -0.35017       -0.26485
C          2.37194       -1.76895       -0.08166
C          1.19497       -2.33488        0.34469
N         -0.07455       -1.79279        0.36576
C         -0.47760       -0.46554        0.26190
C          0.36085        0.70716        0.38360
C         -0.20293        1.88648        0.77162
C         -1.13977        2.51388        0.02520
N         -2.39809        2.11169       -0.37068
C         -2.68699        0.80710       -0.18026
C         -1.93567       -0.32771        0.15231
C         -2.83470       -1.44530        0.10773
N         -3.53897       -2.34124        0.03135
N         -3.67296        1.25261       -0.44789
H         -4.19748        0.58536       -1.01767
H         -4.34996        1.98694       -0.22631
H         -0.90041        3.58305       -0.09790
H          0.10275        2.33537        1.71680
N          0.90627       -3.38354        0.54647
H          0.21981       -4.06469        0.87517
H          1.80179       -3.87245        0.59732
H          3.18455       -2.48620       -0.24896
N          3.67012       -0.36907       -0.60844
H          4.39507       -0.97247       -0.99903
H          4.02465        0.58117       -0.72777
