26
Coordinates from ORCA-job ./opt_b97-3c_parallel
N         -5.29481       -1.19089        0.32342
C         -4.18848       -0.93746        0.21021
C         -2.79271       -0.65450        0.10169
C         -1.93016       -1.72358        0.29515
N         -0.58141       -1.86902        0.23664
C          0.17960       -0.72226        0.02843
N          1.03293       -1.81675        0.08312
C          2.37598       -1.47802        0.01563
N          3.22107       -0.37419       -0.02706
C          2.56607        0.85157       -0.08658
N          3.64267        1.15077        0.00983
H          3.44038        2.14101        0.19562
H          4.66708        1.13625       -0.04014
C          1.29932        1.40636       -0.18569
C          1.23074        2.51156       -0.32028
N          1.48738        3.47356        0.24211
C          0.19132        0.63987       -0.13736
N         -1.05671        0.97295       -0.22636
C         -2.31358        0.66296       -0.21768
N         -2.42510        1.73034       -0.46638
H         -2.39057        2.50759       -1.12672
H         -3.40409        1.65301       -0.18702
N          2.98275       -2.40522        0.02165
H          2.63628       -3.35853       -0.11309
H          3.99960       -2.51368        0.04942
H         -2.37621       -2.70803        0.51404
