29
Coordinates from ORCA-job ./opt_b97-3c_parallel
N         -1.48503       -3.11437        2.29652
C         -1.64947       -2.24920        1.56911
C         -1.81660       -1.13056        0.68358
C         -3.17561       -0.77464        0.39196
C         -3.57763        0.23447       -0.53663
C         -2.89324        1.48181       -0.67640
C         -1.67424        1.80517       -0.11081
C         -1.61097        3.24228       -0.16570
N         -0.91940        4.11130       -0.43794
C         -0.57369        0.89945        0.15020
N          0.50696        1.57232        0.61246
C          1.82925        1.15989        0.63872
N          1.77016        2.10717        1.22430
H          2.78893        2.08218        1.29603
H          1.48953        2.95158        1.72552
C          2.40752        0.13513       -0.09327
C          3.77372        0.61193       -0.05739
N          4.68819        1.29524       -0.11706
C          1.69938       -1.00523       -0.63882
N          2.53258       -1.54585       -1.14494
H          3.47617       -1.43559       -1.51679
H          2.19170       -2.43143       -1.52079
C          0.38570       -1.32455       -0.31478
C          0.09738       -2.65684       -0.79346
N         -0.12981       -3.69911       -1.20581
C         -0.68356       -0.54106        0.12288
H         -3.52294        2.24226       -1.13924
H         -4.60965        0.21243       -0.87548
H         -3.94843       -1.46161        0.72931
