32
Coordinates from ORCA-job ./opt_b97-3c_parallel
N         -5.10488       -1.32372        0.24106
C         -4.07777       -0.86080        0.04895
C         -2.78929       -0.24344       -0.16704
C         -2.92882        0.58561       -1.26035
C         -2.09960        1.72125       -1.51961
C         -1.03751        2.14053       -0.75500
C         -0.07604        1.28554       -0.07832
C          1.01404        1.93773        0.48522
N          0.99565        3.01277        0.77237
H         -0.00146        3.05794        0.97544
H          1.47025        3.38306        1.59385
C          2.30633        1.50177        0.74049
C          2.88751        0.31343        0.31474
N          3.98661        0.48371        0.40994
H          4.47642       -0.19377       -0.17214
H          4.40044        1.39099        0.20360
C          2.18919       -0.88645       -0.12546
C          3.15342       -1.91869       -0.47508
N          3.72659       -2.49641       -1.27817
C          0.81844       -1.11713        0.01526
N          0.52542       -2.18527       -0.10718
H          1.05237       -3.04226       -0.26604
H         -0.46205       -2.42848       -0.16967
C         -0.27354       -0.14154       -0.03113
C         -1.55545       -0.56208        0.53250
N         -1.73901       -1.35614        1.29013
H         -2.49042       -1.51161        1.96011
H         -0.86417       -1.56799        1.76704
H          2.98520        2.24167        1.20260
H         -0.73784        3.17317       -0.90680
H         -2.49096        2.41665       -2.25569
H         -3.83989        0.56088       -1.85611
