27
Coordinates from ORCA-job ./opt_b97-3c_parallel
N          3.90184        0.13242       -0.19560
C          2.80458        0.13652       -0.08854
C          2.31572        1.40962        0.34551
C          0.95114        1.82458        0.42238
C         -0.25293        1.04968        0.22244
C         -1.36876        1.97594        0.19823
C         -2.69395        1.68074       -0.24927
C         -3.24510        0.43698       -0.32910
N         -2.87772       -0.78315        0.07661
C         -1.56599       -1.12117        0.36396
N         -2.17996       -2.03236        0.51667
H         -1.21533       -2.35739        0.43224
H         -2.52503       -2.40938        1.39894
C         -0.33253       -0.39739        0.09273
C          0.72020       -1.28300       -0.13952
C          2.13563       -1.04024       -0.33439
H          2.77982       -1.87988       -0.62974
N          0.65204       -2.38170       -0.31086
H          0.55223       -2.44479       -1.32630
H          1.43171       -2.99367       -0.06824
H         -4.29709        0.52484       -0.64229
H         -3.31193        2.54649       -0.47497
H         -1.16815        3.03924        0.29684
H          0.85052        2.88407        0.64010
H          3.04310        2.20005        0.53283
H          4.43012       -0.31236       -0.94484
H          4.52078        0.82926        0.21601
