26
Coordinates from ORCA-job ./opt_b97-3c_parallel
N         -0.81024       -3.68123        0.14809
C         -0.70576       -2.54776        0.06500
C         -0.64766       -1.11018       -0.02137
C          0.58165       -0.41083       -0.10396
C          1.69329       -1.21476       -0.38565
C          3.05230       -1.03281       -0.41217
C          3.79066        0.11052       -0.01412
C          3.26844        1.31978        0.33068
C          1.90335        1.73815        0.29314
C          0.71496        1.04232        0.08061
C         -0.34735        1.93591        0.06117
C         -1.69482        1.74619       -0.07446
N         -2.49791        0.68480       -0.04981
C         -1.99887       -0.59750        0.06039
N         -3.06387       -0.90751        0.13492
H         -2.80953       -1.79433        0.57663
H         -4.02711       -1.04179       -0.17724
N         -2.50300        2.50139       -0.14434
H         -3.48547        2.72005       -0.31802
H         -2.02519        3.40263       -0.19386
H         -0.09470        2.99318        0.12261
H          1.86618        2.80275        0.51002
H          3.96951        2.10956        0.58638
H          4.87233        0.00897       -0.01643
H          3.65853       -1.88929       -0.69539
H          1.51707       -2.23871       -0.68934
