24
Coordinates from ORCA-job ./opt_b97-3c_parallel
N         -5.20848        0.23052       -0.29807
C         -4.06801        0.27362       -0.25052
C         -2.63793        0.28566       -0.18474
C         -2.16969        1.57460       -0.13316
C         -0.81443        2.01205       -0.04189
C          0.35563        1.28020        0.00594
N          1.40981        2.19272        0.11084
C          2.71061        1.75960        0.19975
C          3.83030        0.99331        0.26515
C          2.97823       -0.06018        0.11051
N          1.81293       -0.78926       -0.02387
C          0.54228       -0.17830       -0.04848
C         -0.51092       -1.18685       -0.13669
C         -0.17257       -2.58447       -0.16792
N          0.14374       -3.68277       -0.18638
C         -1.92815       -0.95320       -0.18328
H         -2.55750       -1.83982       -0.23417
N          3.41184       -1.08013        0.05646
H          3.38193       -1.99268        0.51305
H          4.19559       -1.12358       -0.59523
H          4.65955        1.17131       -0.41781
H          2.91602        2.84072        0.24863
H         -0.73460        3.09753       -0.00382
H         -2.89145        2.39003       -0.15169
