25
Coordinates from ORCA-job ./opt_b97-3c_parallel
N         -2.93016       -3.80488        0.30785
C         -2.42348       -2.78498        0.21059
C         -1.77594       -1.50970        0.13192
C         -2.70981       -0.51102        0.02476
C         -2.43261        0.88792       -0.04035
C         -3.62226        1.67839       -0.17126
N         -4.23032        2.14675       -1.01818
C         -1.24981        1.58269        0.06409
C          0.12232        1.11134        0.13781
C          0.98114        2.19678        0.25995
C          2.34833        2.28751        0.28645
C          3.31741        1.33827        0.13209
C          3.07800       -0.05900       -0.03887
C          4.28712       -0.80994       -0.20559
N          4.91109       -1.20084       -1.08052
C          1.89596       -0.76422       -0.01826
C          0.52618       -0.28613        0.07388
C         -0.34636       -1.44467        0.10387
H          0.11465       -2.42802        0.12760
H          2.01465       -1.84006       -0.11455
H          4.35083        1.67610        0.13592
H          2.73009        3.29609        0.41383
H          0.53300        3.18053        0.36175
H         -1.36875        2.66329        0.05619
H         -3.76356       -0.78784       -0.01307
