28
Coordinates from ORCA-job ./opt_b97-3c_parallel
N         -5.49565       -1.09695        0.50249
C         -4.46774       -0.66486        0.25036
C         -3.17059       -0.12093       -0.02207
C         -3.28278        1.16802       -0.46992
C         -2.21319        2.03308       -0.82919
C         -0.86188        1.86248       -0.66213
C         -0.05096        0.70937       -0.25480
C          1.30657        1.00482       -0.05002
N          1.63415        2.06196        0.09983
H          2.46547        2.38828        0.59168
H          0.83702        2.33459        0.67315
C          2.44803        0.19615        0.03869
C          3.82561        0.64426        0.23175
N          4.89161        1.02043        0.40724
C          2.57809       -1.18060       -0.11114
C          1.48062       -2.12794       -0.11409
C          0.13842       -1.85981        0.00142
C         -0.61379       -0.62277       -0.09085
C         -2.01657       -0.95994        0.06164
H         -2.27188       -1.98574        0.31208
H         -0.45374       -2.76588        0.08040
H          1.66513       -3.21033       -0.14381
N          3.39847       -1.93931       -0.17499
H          4.29896       -1.46221       -0.17181
H          3.42827       -2.60667       -0.94278
H         -0.32071        2.76252       -0.93449
H         -2.52903        3.00713       -1.19212
H         -4.27180        1.60522       -0.58622
