22
Coordinates from ORCA-job ./opt_b97-3c_parallel
N         -0.53345       -3.79121        0.44144
C         -0.15569       -2.71583        0.36359
C          0.36931       -1.38249        0.25141
C          1.78659       -1.35497       -0.06693
N          2.54277       -0.28753       -0.39603
C          2.23253        0.97926       -0.11933
C          1.28487        1.38180        0.75768
C          0.00011        1.09168        0.43936
C         -0.93856        2.20179        0.35022
C         -2.22968        2.20027       -0.16515
N         -2.96061        1.16405       -0.73035
C         -2.58352       -0.13204       -0.49020
N         -1.74641       -0.51332        0.40570
C         -0.48474       -0.26747        0.31295
H         -3.42425       -0.51040       -1.09256
H         -2.82791        3.11051       -0.32349
H         -0.54240        3.17804        0.61425
H          1.54302        1.81843        1.72122
N          3.09509        1.48196       -0.59069
H          4.11109        1.39119       -0.57426
H          2.89258        2.27316       -1.20192
H          2.34429       -2.28976       -0.23390
