30
Coordinates from ORCA-job ./opt_b97-3c_parallel
N          0.73243        2.61497        2.27818
C          0.93313        1.81667        1.48684
C          1.11097        0.79170        0.49104
C          2.42564        0.43857        0.02835
N          3.39199        0.88390        0.33304
H          4.33427        0.49761        0.28957
H          3.44137        1.68867        0.95708
C          2.57532       -0.44943       -0.99034
C          2.37904       -1.68588       -0.46100
N          3.18935       -2.42770       -0.57171
H          3.19267       -3.31605       -1.07261
H          4.15841       -2.10924       -0.55864
C          1.15667       -2.12124        0.16007
C         -0.00575       -1.35647        0.19089
N         -1.09195       -2.07980        0.52549
C         -2.32491       -1.51847        0.41489
N         -3.16695       -0.51859        0.03266
C         -2.54633        0.60269       -0.47537
N         -3.50044        1.08117       -0.78593
H         -4.43826        1.01484       -1.18826
H         -3.21745        2.04976       -0.96138
C         -1.13098        0.92132       -0.37031
C         -0.81894        2.22092       -0.90332
N         -0.62152        3.25317       -1.34788
C         -0.02659        0.12130        0.01932
N         -2.88462       -2.37493        0.83615
H         -3.88775       -2.56405        0.85035
H         -2.47801       -3.09010        1.44312
H          1.12249       -3.17188        0.44825
H          3.21841       -0.26315       -1.85338
