23
Coordinates from ORCA-job ./opt_b97-3c_parallel
N         -3.01453       -1.74274        0.01949
C         -2.02664       -1.25533        0.03247
N         -2.65470       -0.01448       -0.01069
C         -1.90696        1.13278        0.06392
N         -0.65736        1.20347        0.33865
C          0.48853        0.63919        0.19233
C          1.59633        1.55425        0.28738
C          2.98982        1.25860        0.19470
N          3.61653        0.06253       -0.04276
C          3.01359       -1.15811       -0.21494
C          1.69834       -1.54799       -0.17860
C          0.50836       -0.74111        0.00831
C         -0.61116       -1.58590       -0.01394
H         -0.46990       -2.66100       -0.08587
H          1.56636       -2.61555       -0.33089
H          3.92694       -1.75355       -0.36789
H          3.90307        1.86943        0.26101
H          1.36169        2.60051        0.46399
N         -2.54969        2.02301       -0.02595
H         -3.55763        1.90555       -0.11751
H         -2.33494        2.95469       -0.37815
H         -2.65774       -2.69714        0.04390
H         -3.97128       -1.78756        0.36832
