27
Coordinates from ORCA-job ./opt_b97-3c_parallel
N          2.58224        1.84640        2.34507
C          1.78733        1.77432        1.52839
C          0.78712        1.61111        0.51320
C          0.18340        2.78839       -0.03722
C         -0.65412        2.70193       -1.10016
C         -1.74245        2.44839       -0.32727
C         -2.01768        1.16014        0.25777
C         -3.35228        0.95576        0.74686
N         -4.40634        0.74074        1.12962
C         -1.09555        0.10353        0.17470
N         -1.61912       -1.12776        0.37059
C         -0.83885       -2.22954        0.23985
N          0.32288       -2.86984       -0.05946
C          1.36670       -2.03446       -0.39041
N          2.02923       -2.88945       -0.64879
H          2.17609       -3.79997       -1.09108
H          2.95872       -2.45905       -0.64211
C          1.39850       -0.58451       -0.25558
C          2.67026       -0.04960       -0.66159
N          3.69294        0.32448       -1.00503
C          0.37384        0.34766        0.06224
N         -1.66307       -2.91245        0.52187
H         -2.67126       -2.75105        0.58463
H         -1.52479       -3.83788        0.93063
H         -2.53248        3.19423       -0.26484
H         -0.67678        3.48779       -1.85298
H          0.51403        3.75538        0.33570
