22
Coordinates from ORCA-job ./opt_b97-3c_parallel
N          5.02803        0.59747        0.44694
C          3.95477        0.25487        0.26124
C          2.62446       -0.21396        0.04470
C          2.24143       -1.55396        0.35269
N          0.99992       -2.02798        0.11817
C         -0.20995       -1.44953       -0.09176
N         -1.20352       -2.42432       -0.18593
C         -2.53133       -2.06055       -0.19869
N         -3.60016       -1.33761       -0.16374
C         -2.93435       -0.25435        0.04812
C         -1.82247        0.54414        0.17614
C         -2.25975        1.88214        0.43219
N         -2.63576        2.93461        0.66562
C         -0.47321        0.00245        0.01685
C          0.63412        0.93352       -0.08999
C          0.65268        2.36565       -0.06906
N          0.69942        3.50684       -0.07638
C          1.83673        0.64155       -0.64232
H          2.02696        0.83356       -1.69854
H         -4.00078        0.01789        0.12596
H         -3.13648       -2.97734       -0.28715
H          3.04835       -2.21178        0.71258
