31
Coordinates from ORCA-job ./opt_b97-3c_parallel
N         -2.83159       -2.80450       -1.25859
C         -2.41769       -1.83630       -0.81648
C         -1.93709       -0.58615       -0.29688
C         -2.88274        0.36922       -0.67453
N         -2.99121        1.70324       -0.49638
C         -2.09773        2.25472        0.40058
C         -1.19469        1.72359        1.25818
C         -0.23400        0.96235        0.66266
C          1.05399        1.54055        0.33188
C          1.22862        2.94857        0.59522
N          1.31742        4.06945        0.79811
C          1.99283        0.82164       -0.52555
N          2.72223        1.43349       -1.10169
H          2.91838        2.43198       -1.03527
H          3.56337        1.00744       -1.49101
C          2.26273       -0.61144       -0.41233
C          3.43167       -1.18796       -1.04777
N          4.34929       -1.62166       -1.57316
C          1.59191       -1.47851        0.45286
N          1.96827       -2.45853        0.82809
H          2.96496       -2.61181        0.67506
H          1.63090       -3.27782        1.33199
C          0.16712       -1.37240        0.72396
C         -0.60774       -2.27449        1.55579
N         -1.35109       -2.16869        2.41865
C         -0.56008       -0.33830        0.15093
H         -1.06675        2.11540        2.26613
H         -2.14425        3.34131        0.57569
N         -3.85619        0.62192       -1.14969
H         -4.78098        1.05380       -1.16203
H         -3.95662       -0.25008       -1.67128
