21
Coordinates from ORCA-job ./opt_b97-3c_parallel
N          4.10456        0.39952        0.02341
C          3.07370        0.79891        0.31748
C          1.65778        0.64505        0.16670
C          1.51042        1.99486        0.35358
N          0.39373        2.77957        0.24717
C         -0.86847        2.32749       -0.04376
C         -1.39438        1.00374       -0.20079
C         -2.82064        1.01401       -0.38852
N         -3.95358        1.06018       -0.53356
C         -0.72989       -0.22765       -0.17143
N         -1.51669       -1.34174       -0.26893
C         -1.02888       -2.58450        0.08190
N         -0.01415       -3.41219        0.50256
C          1.19333       -2.75488        0.44576
C          1.35713       -1.62228       -0.29224
C          0.72779       -0.42489       -0.08464
H          2.01522       -1.69349       -1.15488
H          1.76060       -3.61844        0.82458
H         -2.06496       -2.92720       -0.06117
H         -1.36900        3.30772       -0.04175
H          1.73800        3.05745        0.53274
