22
Coordinates from ORCA-job ./opt_b97-3c_parallel
N         -1.92266       -3.08533        0.58070
C         -1.56437       -2.01634        0.38728
C         -1.15806       -0.65726        0.15057
C          0.20981       -0.38039        0.00857
N          1.07555       -1.42396       -0.13265
C          2.40268       -1.15914       -0.41384
N          3.37788       -0.34048       -0.64455
C          3.02815        0.89824       -0.50600
C          2.09568        1.36907        0.36985
C          0.80297        0.96416        0.16866
N          0.19596        2.13856        0.43636
C         -1.12739        2.22956        0.10696
C         -2.07867        1.54709       -0.56658
C         -2.20750        0.32511        0.01367
N         -3.31410        0.33151        0.08402
H         -3.45292       -0.61916        0.42313
H         -4.14065        0.86262        0.35080
H         -2.16528        1.66645       -1.64687
H         -1.47604        3.23711        0.37853
H          2.41847        1.69608        1.35799
H          4.03413        1.02043       -0.07627
H          2.72077       -2.21188       -0.45308
