30
Coordinates from ORCA-job ./opt_b97-3c_parallel
N          4.68572        2.48643        0.12864
C          3.81654        1.75085        0.05460
C          2.76140        0.78596       -0.01361
C          1.39303        1.21466       -0.06655
C          0.17846        0.39922       -0.08335
C         -1.03140        1.23198       -0.15148
N         -1.05522        2.33530       -0.26473
H         -1.57798        3.11328        0.14312
H         -0.55702        2.73767       -1.06023
C         -2.39563        0.91485       -0.07546
C         -3.64820        1.65034       -0.10735
N         -4.53473        1.85342       -0.79878
C         -3.00420       -0.39144        0.10178
N         -2.31543       -1.54694        0.07751
C         -1.00213       -1.81970       -0.02194
N         -1.33107       -2.88366       -0.01185
H         -1.52249       -3.40556       -0.87241
H         -1.46167       -3.56826        0.73881
C          0.15478       -1.05648       -0.05695
C          1.31523       -1.92560       -0.08142
N          2.68590       -1.70710       -0.07324
C          3.24970       -0.49717       -0.03049
N          4.17591       -1.11078       -0.01629
H          4.83296       -1.63197       -0.60228
H          4.77109       -0.50043        0.55002
H          1.79121       -2.91955       -0.08931
N         -3.87057       -1.08593        0.22428
H         -4.46684       -1.24800        1.04058
H         -4.47455       -0.57154       -0.42569
H          1.30218        2.29799       -0.06040
