21
Coordinates from ORCA-job ./opt_b97-3c_parallel
N         -1.78565       -3.24313       -0.26483
C         -1.52126       -2.13297       -0.19761
C         -1.23117       -0.72826       -0.09132
C         -2.37511        0.03384        0.30560
N         -2.59493        1.38702        0.29986
C         -1.66245        2.34780        0.01282
C         -0.30121        2.26664       -0.11823
C          0.55179        1.09865       -0.14295
C          1.88389        1.50949       -0.21739
C          2.99255        0.66384        0.13107
C          2.85254       -0.54551        0.72954
C          2.27616       -1.17450       -0.31990
N          0.96789       -1.22338       -0.73416
C          0.08690       -0.29836       -0.26005
H          2.43063       -2.03946       -0.98254
H          3.67932       -1.00533        1.26507
H          3.97584        1.12071        0.07693
H          2.16032        2.54324       -0.40512
H          0.18678        3.23468       -0.18809
H         -2.20976        3.30176        0.04494
H         -3.43592       -0.13647        0.54199
