29
Coordinates from ORCA-job ./opt_b97-3c_parallel
N          3.87991        1.28632       -1.44620
C          3.82552        1.10890       -0.31927
C          2.62387        0.38926       -0.01356
C          2.83665       -0.96139        0.11715
N          1.94101       -1.95779        0.47051
C          0.55678       -1.88066        0.51080
N          0.81457       -2.94534        0.69967
H          0.83384       -3.04882        1.71911
H          1.22090       -3.81904        0.35165
C         -0.31052       -0.76267        0.17256
C         -1.59826       -1.15856       -0.22528
N         -2.69882       -0.51453       -0.69201
C         -2.82953        0.84758       -0.45150
N         -3.67684        1.39346       -0.91263
H         -3.51605        2.40124       -0.83610
H         -4.51917        1.31416       -1.48748
C         -2.20395        1.46834        0.58641
C         -0.87035        1.67053        0.39592
N         -0.95086        2.76979        0.51264
H          0.01403        3.04794        0.69715
H         -1.51023        3.56069        0.84198
C          0.12327        0.62844        0.25099
C          1.41377        1.12998        0.20155
H          1.54670        2.20891        0.19913
H         -2.61849        1.38333        1.59678
N         -2.22973       -2.04001       -0.47797
H         -3.01428       -2.54199       -0.04874
H         -2.14962       -2.44914       -1.41427
H          3.83059       -1.43194        0.02583
