24
Coordinates from ORCA-job ./opt_b97-3c_parallel
N         -2.06927       -2.92734       -0.82685
C         -1.70880       -2.00840       -0.25071
C         -1.11532       -0.70186       -0.10120
C          0.26904       -0.48663        0.00933
C          0.75966        0.85682       -0.18213
N          2.03430        1.39341       -0.20597
C          3.13457        0.67726        0.02292
C          3.42978       -0.63099        0.28412
C          2.46704       -1.68092        0.37826
C          1.10168       -1.57849        0.24105
H          0.62707       -2.54340        0.37397
H          2.89010       -2.65980        0.58189
H          4.46543       -0.92523        0.42096
H          3.92569        1.43702       -0.06220
C          0.04750        1.91712       -0.62249
C         -0.91076        2.37001        0.21261
C         -2.09473        1.61559        0.46647
C         -2.20650        0.26816        0.11145
N         -3.31201        0.15772        0.17457
H         -4.13379        0.74794        0.06272
H         -3.47717       -0.67705       -0.38563
H         -2.90919        2.22090        0.87811
H         -0.91794        3.41120        0.51839
H          0.03827        2.18882       -1.67617
