29
Coordinates from ORCA-job ./opt_b97-3c_parallel
N         -2.95573       -3.77430       -0.02877
C         -2.44048       -2.75585       -0.08174
C         -1.76362       -1.49328       -0.11414
C         -2.48981       -0.31710        0.24595
C         -2.05180        1.04845        0.24538
C         -3.10692        1.97691        0.58097
N         -3.92702        2.73432        0.82471
C         -0.69624        1.49095       -0.07755
C          0.45315        0.74526       -0.36597
C          1.63299        1.48793       -0.75243
N          2.61297        1.54102        0.15645
C          3.29280        0.35844        0.39103
N          4.03138        0.89857        1.00995
H          4.32461        1.71862        1.54047
H          4.54987        0.11229        1.40081
C          3.15602       -0.78872       -0.36760
C          1.88676       -1.27406       -0.90541
N          2.18548       -2.26562       -1.29883
H          1.33250       -2.41149       -1.83850
H          2.84836       -2.96439       -1.63508
C          0.60177       -0.68254       -0.53925
C         -0.44910       -1.67108       -0.48321
H         -0.14711       -2.69593       -0.69230
H          4.04945       -1.41822       -0.42828
H          1.73898        2.58408       -0.73239
N         -0.60322        2.60086       -0.04760
H         -1.00978        3.13147        0.72379
H         -1.15577        2.83760       -0.87238
H         -3.53254       -0.48404        0.51160
