26
Coordinates from ORCA-job ./opt_b97-3c_parallel
N         -5.04949       -0.28331        0.56587
C         -3.94411       -0.15501        0.30813
C         -2.57123        0.04119       -0.03878
C         -1.90371       -1.08959       -0.46375
N         -0.60931       -1.45342       -0.60044
C          0.48001       -0.61263       -0.34464
C          0.34224        0.82684       -0.30991
N          1.27907        1.83235       -0.11263
C          2.56968        1.59856        0.14560
C          3.35302        0.47963        0.26068
C          2.98111       -0.83123        0.11588
C          1.72519       -1.33580       -0.16457
C          1.82109       -2.76985       -0.21999
N          1.93125       -3.90586       -0.25129
H          3.80106       -1.53799        0.24266
H          4.40583        0.64296        0.48048
N          2.81395        2.67312        0.22352
H          3.63631        2.93149        0.76858
H          2.54692        3.51302       -0.29058
C         -0.76249        1.53546       -0.66019
C         -1.92390        1.31853        0.00917
N         -2.20436        2.34165        0.32347
H         -2.16305        3.20111        0.87023
H         -3.19271        2.09302        0.27161
H         -0.81297        1.94063       -1.67287
H         -2.17787       -2.14072       -0.64362
