24
Coordinates from ORCA-job ./opt_b97-3c_parallel
N          2.74739        3.29625       -0.17223
C          2.25797        2.26456       -0.15602
C          1.62189        0.97186       -0.09926
C          2.62525       -0.05015       -0.07092
N          2.48436       -1.37752       -0.05642
C          1.40670       -2.16134       -0.02292
N          2.10958       -3.02071       -0.04172
H          2.94367       -3.38194        0.42664
H          1.73233       -3.82290       -0.55147
C          0.02164       -1.76973        0.04360
C         -0.87966       -2.88830        0.11469
N         -1.57006       -3.79629        0.15671
C         -0.53915       -0.48425        0.03029
N         -1.91208       -0.41213        0.10996
C         -2.62506        0.78005        0.09344
N         -2.65921        2.15856        0.01486
C         -1.39523        2.70337       -0.10899
N         -0.35456        1.93181       -0.12243
C          0.23026        0.77161       -0.06529
H         -1.37130        3.80262       -0.18763
N         -3.68885        0.50203        0.18942
H         -4.20006       -0.02032        0.90161
H         -4.39903        1.01926       -0.33085
H          3.72144        0.06213       -0.08964
