26
Coordinates from ORCA-job ./opt_b97-3c_parallel
N         -5.75373       -0.49671       -0.00742
C         -4.61129       -0.46752       -0.04046
C         -3.18250       -0.40079       -0.05303
C         -2.63043       -1.60993       -0.37533
C         -1.25788       -1.98912       -0.29403
C         -0.10393       -1.24628       -0.08034
C         -0.02828        0.21683       -0.06652
N          1.14694        0.95885       -0.25394
C          2.41230        0.53867       -0.19945
C          3.01738       -0.62927        0.17212
C          4.43568       -0.54346        0.34035
N          5.56104       -0.42397        0.48267
C          2.33125       -1.86442        0.32871
C          0.99441       -2.08657        0.10172
H          0.78238       -3.15199        0.15117
H          2.96411       -2.71773        0.56055
N          2.57410        1.60391       -0.46240
H          2.35807        2.45971       -0.97568
H          3.59007        1.51383       -0.50036
C         -1.14479        1.15092        0.11616
C         -0.89913        2.56152        0.28390
N         -0.65524        3.66832        0.42190
C         -2.53587        0.82928        0.25307
H         -3.20656        1.65647        0.48085
H         -1.15464       -3.06173       -0.44197
H         -3.30226       -2.43800       -0.60348
