23
Coordinates from ORCA-job ./opt_b97-3c_parallel
N         -1.54535       -3.13444       -0.19476
C         -1.37418       -2.08433        0.22395
C         -1.07572       -0.66735        0.16454
C          0.33646       -0.31824        0.30145
C          0.83229        1.05815        0.12560
N          2.17029        1.29147        0.03530
C          3.04029        0.25242       -0.22898
N          3.30480       -1.08317       -0.42632
C          2.20422       -1.84058       -0.09612
C          1.18791       -1.33556        0.65674
H          1.10903       -1.70681        1.67603
H          2.53805       -2.87302       -0.27787
H          3.97274        0.81760       -0.37657
C          0.10197        2.22903        0.05906
C         -1.30631        2.46380        0.04226
C         -2.30742        1.53825       -0.02020
C         -2.17920        0.16192       -0.00391
N         -3.24007       -0.16171       -0.10872
H         -4.19664        0.17067       -0.00326
H         -3.29409       -1.06903       -0.56921
H         -3.29107        2.01661       -0.09727
H         -1.58205        3.51325        0.00785
H          0.65967        3.16086        0.00214
