23
Coordinates from ORCA-job ./opt_b97-3c_parallel
N         -4.90398       -1.27113        0.46637
C         -3.80713       -0.97671        0.33766
C         -2.42382       -0.63695        0.20164
C         -1.44987       -1.67087        0.30297
N         -0.08601       -1.61800        0.14136
C          0.76458       -0.53205        0.00062
C          2.06643       -1.00083       -0.20827
C          2.54385       -2.31349       -0.55559
N          2.74502       -2.98687       -1.45871
C          3.27548       -0.25535        0.07065
C          3.35124        0.88643        0.79792
C          2.57694        1.74681        0.10705
N          1.27451        1.90857       -0.27600
C          0.35495        0.87396       -0.09565
C         -0.94512        1.36452       -0.19479
C         -1.33907        2.73111       -0.44011
N         -1.59755        3.49990       -1.24595
C         -2.22267        0.69613       -0.06555
H         -3.12931        1.29875       -0.16184
H          2.88647        2.76823       -0.16128
H          4.29935        1.21184        1.22144
H          4.23539       -0.70995       -0.17026
H         -1.68601       -2.73254        0.47207
