27
Coordinates from ORCA-job ./opt_b97-3c_parallel
N         -0.34349       -3.67638        0.62918
C          0.10104       -2.63493        0.47211
C          0.60544       -1.29972        0.26542
C         -0.39865       -0.33202        0.09741
N         -1.69340       -0.71671       -0.12095
C         -2.69513        0.22948       -0.23229
C         -3.35668        1.42161       -0.27477
C         -2.14212        1.99285       -0.06633
N         -0.79958        2.18385        0.15453
C         -0.02719        1.07461        0.22148
C          1.14972        1.61970        0.60348
C          2.18405        1.35056       -0.22506
C          2.75691        0.04809       -0.35533
C          2.05484       -1.13720        0.10981
N          2.81528       -1.94282        0.11610
H          2.63512       -2.86569        0.51019
H          3.82714       -1.87068        0.01487
H          3.77840       -0.01586       -0.73602
N          2.69972        2.26933       -0.55003
H          2.47648        3.23627       -0.78271
H          3.70934        2.17495       -0.65336
H          1.33262        1.85971        1.65098
H         -2.18761        3.09251       -0.02050
H         -4.18328        1.63955        0.40093
N         -3.32775       -0.65906       -0.44263
H         -3.42090       -1.66837       -0.31760
H         -4.10441       -0.38767       -1.04539
