18
Coordinates from ORCA-job ./opt_b97-3c_parallel
C         -2.89246       -0.05188       -0.46606
C         -2.53202        1.12881        0.08614
C         -1.17610        1.57016        0.25716
C         -0.02603        0.80267        0.09489
N          1.09882        1.55625        0.03659
C          2.33662        0.97681       -0.08121
N          3.12846       -0.12716       -0.15874
C          2.27079       -1.17865       -0.05747
N          0.97296       -1.60478        0.07388
C         -0.02062       -0.68603        0.09597
N         -1.02427       -1.56088        0.31259
C         -2.30474       -1.11455        0.12007
H         -3.07522       -1.87149        0.33425
H          3.09381       -1.90873       -0.10815
H          3.04195        1.82174       -0.13243
H         -1.08205        2.63398        0.46258
H         -3.29420        1.88534        0.25261
H         -3.81973       -0.15377       -1.02768
