32
Coordinates from ORCA-job ./opt_b97-3c_parallel
N         -5.04191       -0.67627       -0.96850
C         -3.96690       -0.44889       -0.65743
C         -2.61002       -0.15057       -0.22192
C         -2.10855        1.13254       -0.48501
N         -2.74842        1.86450       -1.03701
H         -2.65290        2.84218       -1.31353
H         -3.72087        1.62191       -1.23130
C         -0.91358        1.71984        0.13455
C         -0.81215        3.17070        0.21374
N         -0.27397        4.03362       -0.31611
C          0.28206        1.01736        0.35418
N          1.32558        1.75682        0.91040
C          2.61860        1.40039        0.67302
N          3.45914        0.61596       -0.06399
C          2.89398       -0.42279       -0.78290
N          3.85924       -0.65279       -1.28380
H          4.75512       -0.37515       -1.69236
H          3.63773       -1.54089       -1.74328
C          1.60444       -1.04277       -0.51911
C          1.47779       -2.33777       -1.12786
N          1.43106       -3.36643       -1.61824
C          0.42923       -0.40930        0.12357
C         -0.54358       -1.24600        0.66770
C          0.06956       -2.27660        1.48747
N          0.75457       -3.00805        2.03606
C         -1.92784       -1.10924        0.63160
N         -2.53499       -1.93151        1.07435
H         -3.54755       -1.97444        0.96859
H         -2.25900       -2.82537        1.48533
N          3.12731        2.18944        1.25675
H          2.68325        2.90940        1.83069
H          4.12812        2.30907        1.42131
