21
Coordinates from ORCA-job ./opt_b97-3c_parallel
N         -2.07809       -2.75860        0.16394
C         -1.46417       -1.92510       -0.32206
C         -1.06491       -0.88873       -0.20243
C          0.25321       -0.59518       -0.19008
N          1.18329       -1.21464       -0.28610
C          2.25749       -1.51021       -0.26497
C          3.24962       -0.64907        0.12446
C          3.02350        0.70114        0.19326
N          1.86011        1.46543        0.13945
C          0.70074        0.70602       -0.03565
N          0.33207        2.03385        0.08914
C         -1.04010        2.18442        0.09829
N         -2.22504        1.46369        0.05484
C         -2.03856        0.09267       -0.07261
N         -3.14276        0.26638        0.01431
H         -3.37160       -0.69949        0.27342
H         -4.06020        0.68908       -0.15984
H         -1.15007        3.27770        0.19431
H          4.01941        1.15409        0.32690
H          4.18087       -1.05555        0.51752
H          2.78888       -2.34372       -0.75109
