22
Coordinates from ORCA-job ./opt_b97-3c_parallel
N         -0.54430       -3.84059        0.27141
C         -0.14208       -2.77111        0.23071
C          0.39984       -1.44259        0.16206
C          1.76387       -1.56595       -0.03011
C          2.73716       -0.51994       -0.12464
C          2.52151        0.83657       -0.07900
N          1.35290        1.56153        0.02416
C          0.06014        1.08906        0.17046
C         -0.73003        2.20939        0.24197
C         -1.99968        2.23662       -0.25882
N         -3.00724        1.36220       -0.37734
C         -2.79724        0.09763        0.01562
N         -1.70752       -0.43561        0.47013
C         -0.43301       -0.26685        0.28090
H         -3.62240       -0.62921       -0.05265
H         -2.78427        2.88944       -0.67150
H         -0.40695        3.05924        0.84126
N          3.19013        1.71352       -0.13143
H          3.20783        2.62434        0.32706
H          4.14710        1.53821       -0.43731
H          3.76245       -0.86072       -0.24329
H          2.19989       -2.56224       -0.10197
