24
Coordinates from ORCA-job ./opt_b97-3c_parallel
N         -2.57215       -3.09986       -0.62198
C         -2.28130       -2.00909       -0.44916
C         -1.85534       -0.65875       -0.21548
C         -0.48040       -0.38180       -0.22034
N          0.39944       -1.42269       -0.26630
C          1.74279       -1.18970       -0.02516
N          2.78565       -0.32249        0.26064
C          2.43959        1.01288        0.12509
N          3.25011        1.69878        0.44106
H          2.97753        2.66843        0.61931
H          4.24335        1.65800        0.68004
C          1.35940        1.40144       -0.61606
C          0.09414        0.97375       -0.31218
N         -0.53905        2.14460       -0.51740
C         -1.85125        2.23696       -0.12896
C         -2.63369        1.50168        0.68826
C         -2.87700        0.29742        0.12074
H         -3.90199       -0.06257        0.09057
H         -3.37880        1.97827        1.32397
H         -2.38564        3.17841       -0.33415
H          1.55440        1.78662       -1.61970
N          1.99421       -2.26628       -0.06898
H          2.94361       -2.63513       -0.00425
H          1.41238       -3.07944       -0.28303
