30
Coordinates from ORCA-job ./opt_b97-3c_parallel
N         -4.76026       -2.16735       -0.60564
C         -3.95620       -1.42123       -0.28381
C         -2.96745       -0.45687        0.09802
C         -3.36447        0.60625        0.96000
C         -2.56094        1.71650        1.34339
C         -1.27892        2.05689        0.81471
C         -0.28642        1.19941        0.18448
C          0.80067        1.99380       -0.37070
N          0.78516        3.08923       -0.56554
H         -0.17413        2.98766       -0.89216
H          1.26543        3.66487       -1.25434
C          2.10323        1.63696       -0.69543
C          2.72451        0.40183       -0.26748
N          3.80458        0.68189       -0.30467
H          4.13099        1.54182        0.13226
H          4.45373       -0.05214       -0.02559
C          2.09273       -0.80239        0.02297
C          3.08913       -1.81380        0.35042
N          3.85581       -2.61178        0.63877
C          0.69420       -1.12308       -0.25804
N          0.57448       -2.22702       -0.35301
H         -0.06784       -2.58870        0.34921
H          1.24700       -2.96723       -0.54799
C         -0.44735       -0.21352       -0.10207
C         -1.68957       -0.83129       -0.26466
H         -1.67714       -1.80006       -0.75895
H          2.77260        2.41448       -1.11045
H         -0.98553        3.07163        1.06531
H         -3.05857        2.48189        1.93026
H         -4.39614        0.61755        1.29924
