23
Coordinates from ORCA-job ./opt_b97-3c_parallel
N         -4.84585       -1.22092       -0.06686
C         -3.76153       -0.86276       -0.05886
C         -2.42616       -0.35673       -0.05270
C         -1.49683       -1.35285       -0.18807
N         -0.16427       -1.44130       -0.20239
C          0.69986       -0.35697       -0.12768
C          0.33434        1.04546       -0.09409
N         -0.91270        1.65082        0.01379
C         -2.15121        1.04116        0.08485
N         -2.66933        2.01041        0.20564
H         -3.65614        1.79775        0.05377
H         -2.65091        2.87504        0.74625
C          1.15023        2.12408       -0.25111
C          2.38512        2.10695        0.29587
N          3.45939        1.28481        0.49731
C          3.22372       -0.00336        0.19989
C          2.10169       -0.76066       -0.09905
C          2.58504       -2.10779       -0.17810
N          2.94201       -3.19247       -0.22187
H          4.30471       -0.13838        0.36272
H          3.05645        2.91632        0.62282
H          0.96801        2.82291       -1.06644
H         -1.49843       -2.44882       -0.29708
