29
Coordinates from ORCA-job ./opt_b97-3c_parallel
N         -0.53451       -2.72203       -2.15061
C         -1.16116       -2.46247       -1.22997
C         -0.97014       -1.20273       -0.55008
C         -2.26255       -0.69038       -0.59983
C         -2.74796        0.48590        0.06081
C         -4.17939        0.61049        0.15594
N         -5.31283        0.70582        0.26526
C         -1.94757        1.54578        0.45205
C         -0.58516        1.73204        0.29232
C          0.41895        0.79696        0.10226
C          1.71085        1.41899       -0.14480
C          2.10380        2.76927       -0.46543
N          2.41384        3.42265       -1.35100
C          2.95864        0.82623       -0.23392
N          3.34721       -0.33746        0.39150
C          2.48739       -1.23043        0.99886
C          1.17338       -1.56556        0.53900
C          0.83328       -2.91061        0.90467
N          0.59814       -3.98237        1.22175
C          0.22790       -0.64383        0.07209
H          3.15484       -1.98217        1.44971
N          4.05801        0.73126       -0.38232
H          3.98272        1.51980       -1.02824
H          5.05474        0.63861       -0.18311
H         -0.21877        2.75197        0.43839
N         -2.34708        2.50188        0.85813
H         -2.02862        3.38838        1.24634
H         -3.35673        2.48175        1.00166
H         -3.08526       -1.26963       -1.03023
