26
Coordinates from ORCA-job ./opt_b97-3c_parallel
N         -4.44941       -1.55538       -0.12480
C         -3.49926       -0.92247       -0.17017
C         -2.31097       -0.11891       -0.18559
C         -1.16308       -0.88191       -0.24159
C          0.19893       -0.58351       -0.17266
C          1.03455       -1.70116       -0.30951
N          0.80423       -2.74654       -0.61295
H          1.40831       -3.36086       -1.15567
H          0.12056       -2.37308       -1.26788
C          2.44983       -1.90087       -0.02531
C          3.32423       -0.97182        0.46415
N          3.20893        0.38831        0.53800
C          2.09004        1.12180        0.23865
C          0.71234        0.77145       -0.01312
C         -0.01646        2.02774       -0.12898
N          0.35421        3.07595       -0.12723
H          1.15044        2.81954       -0.70761
H         -0.01214        3.94552       -0.51011
C         -1.43763        2.27155       -0.24432
C         -2.47089        1.29549       -0.19755
H         -3.48815        1.67668       -0.20815
H         -1.83187        3.29114       -0.30085
H          2.82418        1.92175        0.41711
H          4.35740       -0.80175        0.80409
H          2.91504       -2.88848       -0.12271
H         -1.39315       -1.94371       -0.29579
