31
Coordinates from ORCA-job ./opt_b97-3c_parallel
N          4.63090        1.18146       -1.59984
C          3.71041        0.78569       -1.05190
C          2.52548        0.32576       -0.36185
C          1.61935        1.36760        0.02293
N          1.54430        2.46843       -0.06860
H          1.21145        3.41714        0.10339
H          2.56127        2.53619       -0.11718
C          0.60236        1.16696        0.89307
C         -0.47557        0.48312        0.42441
C         -0.31045       -0.96807        0.35747
N         -1.37236       -1.86655        0.31742
C         -2.62484       -1.42827        0.04768
N         -3.51084       -0.44511       -0.26831
C         -3.00521        0.83834       -0.28402
C         -1.68406        1.28748        0.13933
C         -1.60437        2.71645        0.23391
N         -1.59299        3.85649        0.28999
N         -3.99979        1.23968       -0.57675
H         -4.96535        1.16347       -0.90532
H         -3.79017        2.24024       -0.63702
N         -2.97622       -2.47340        0.13365
H         -3.70250       -2.75690        0.79336
H         -2.60478       -3.34851       -0.24345
C          0.95972       -1.58401        0.44076
C          1.01993       -3.01459        0.69485
N          0.73312       -4.05106        0.30411
C          2.26330       -0.99400        0.04935
N          3.16885       -1.63634       -0.05701
H          4.11020       -1.29713        0.14357
H          3.28891       -2.47962       -0.61810
H          0.78162        1.22714        1.96769
