23
Coordinates from ORCA-job ./opt_b97-3c_parallel
N         -3.13304       -1.56719       -0.44048
C         -2.27204       -0.97162       -0.07898
N         -2.96720        0.16638       -0.45217
C         -2.28638        1.33488       -0.15093
C         -1.11394        1.69667        0.44529
C          0.02124        0.95116        0.28275
N          1.10174        1.80448        0.10045
C          2.34592        1.24652       -0.07591
C          3.32050        0.30934       -0.20641
C          2.44177       -0.71563       -0.00398
N          1.20406       -1.30753        0.21154
C          0.05780       -0.50880        0.31901
C         -1.07137       -1.26334        0.51532
H         -1.05021       -2.04133        1.27782
N          2.94245       -1.70258        0.07172
H          3.03608       -2.40803        0.80421
H          3.80928       -1.76818       -0.46512
H          3.98846        0.33488       -1.06817
H          2.83562        2.22993       -0.16171
H         -1.11237        2.53793        1.13837
H         -2.80142        2.26937       -0.42824
H         -4.00584       -1.61448        0.09018
H         -3.31696       -2.09023       -1.29895
