25
Coordinates from ORCA-job ./opt_b97-3c_parallel
N         -3.56578       -0.34658       -0.21596
C         -2.51131       -0.23597        0.08933
N         -2.03035       -1.52271        0.05456
C         -0.70888       -1.66373        0.28166
C          0.41908       -0.85097        0.22596
C          1.60198       -1.66489        0.35727
C          2.91249       -1.29732        0.19411
C          3.45084       -0.10535       -0.20844
C          2.85097        1.08620       -0.51634
C          1.45932        1.40617       -0.41701
C          0.40526        0.58204       -0.05953
C         -0.83954        1.31236        0.05556
N         -1.28810        2.32138       -0.05985
H         -0.32436        2.64457        0.01032
H         -1.86485        3.15346        0.06880
C         -1.95320        0.84870        0.68588
H         -2.05279        0.95775        1.76914
H          1.24887        2.44620       -0.64847
H          3.49976        1.90093       -0.82499
H          4.53261       -0.10620       -0.30737
H          3.63560       -2.09009        0.36368
H          1.42897       -2.70915        0.60599
H         -0.86795       -2.74897        0.37563
H         -3.61937        0.56588       -0.66947
H         -4.28493       -0.92528       -0.64966
