30
Coordinates from ORCA-job ./opt_b97-3c_parallel
N          4.94090        0.29272       -1.60495
C          3.90843        0.22490       -1.12032
C          2.58938        0.16349       -0.53985
C          2.10268       -1.11775       -0.72950
C          0.89184       -1.63765       -0.11755
C          1.09632       -3.05565       -0.27621
N          0.58382       -3.66081       -1.10246
C         -0.23077       -0.86991        0.18385
C         -1.36681       -1.61276        0.69971
C         -1.40816       -2.88299        1.36359
N         -1.46777       -3.87894        1.91971
C         -2.68919       -1.25327        0.69641
N         -3.40129       -0.33237        0.03938
C         -2.79244        0.72507       -0.60849
N         -3.79778        1.00079       -0.98192
H         -3.65816        1.95813       -1.30890
H         -4.68682        0.70078       -1.38300
C         -1.46145        1.23385       -0.38523
C         -1.24990        2.55879       -0.90281
N         -1.12963        3.61267       -1.32534
C         -0.33676        0.50053        0.01827
C          0.70368        1.26927        0.69261
C          0.26606        2.26420        1.65358
N         -0.53283        2.23382        2.47171
C          2.05344        1.13835        0.38891
N          2.79063        1.89123        0.74570
H          2.74203        2.60820        1.46823
H          3.77238        1.83311        0.47236
H         -3.64019       -1.70102        1.02814
H          2.76017       -1.81837       -1.25626
