24
Coordinates from ORCA-job ./opt_b97-3c_parallel
N         -5.45833        0.64739        0.70507
C         -4.36631        0.43745        0.44254
C         -3.00982        0.13143        0.11454
C         -2.45736        1.11852       -0.65097
C         -1.15478        1.35147       -0.71618
C         -0.21792        0.64551       -0.01378
C         -0.11776       -0.79133        0.08137
N          1.07477       -1.41861        0.16651
C          2.32463       -0.93563        0.01616
C          2.62215        0.46372       -0.10777
C          3.92708        0.88079       -0.51592
N          4.98327        1.18242       -0.82863
C          1.94877        1.49258        0.48771
C          0.62587        1.57170        0.53584
H          0.19339        2.42156        1.06431
H          2.51655        2.28288        0.97958
N          2.56325       -2.00799       -0.08609
H          2.54184       -2.94127       -0.49569
H          3.54634       -1.73970       -0.03925
N         -1.22355       -1.63409        0.08653
C         -2.54201       -1.21880        0.22976
H         -3.12075       -2.09327        0.56267
H         -0.81866        2.14196       -1.38758
H         -3.10906        1.73283       -1.27305
