25
Coordinates from ORCA-job ./opt_b97-3c_parallel
N          4.62383        0.68770        0.27862
C          3.51255        0.44830        0.15704
C          2.09428        0.21292        0.00844
C          1.52097        1.46627        0.00699
N          0.27375        1.94848       -0.03687
C         -0.86120        1.16130       -0.18773
C         -1.90897        2.05032       -0.17650
C         -3.12389        1.73480        0.36073
N         -3.87881        0.62906        0.42157
C         -3.38287       -0.50734       -0.08832
N         -2.20831       -0.69734       -0.60202
C         -0.99572       -0.27048       -0.38335
C          0.03276       -1.21654       -0.32080
C         -0.35195       -2.60790       -0.48240
N         -0.61785       -3.55367        0.10210
C          1.40897       -1.06549       -0.11212
N          2.18197       -1.86746       -0.03720
H          3.15931       -1.97804        0.23207
H          1.75647       -2.78746        0.07936
H         -3.98592       -1.42907       -0.07919
H         -4.02944        2.11935        0.85359
H         -1.81868        3.00510       -0.69338
N          1.62910        2.57263        0.05965
H          2.58204        2.55103        0.42693
H          1.55845        3.45355       -0.45114
