28
Coordinates from ORCA-job ./opt_b97-3c_parallel
N          3.97558        0.64748        0.57444
C          2.74195        0.44919        0.08089
C          2.55286       -0.83363       -0.35213
C          1.24215       -1.45992       -0.45459
C          0.02150       -0.79250       -0.26509
C         -1.06103       -1.75320       -0.09039
N         -2.35021       -1.54438        0.20789
C         -2.70081       -0.23486        0.23316
N         -2.51564        1.10981        0.11045
C         -1.26386        1.48951       -0.19504
N         -1.54470        2.56160       -0.24597
H         -2.17714        3.26507       -0.63360
H         -0.62174        2.99922       -0.26598
C         -0.05089        0.68552       -0.31099
C          1.07561        1.42303       -0.52894
C          1.96102        1.48519        0.50215
H          2.33814        2.42390        0.90322
H          1.21389        2.01768       -1.43132
N         -3.75193       -0.40312        0.53210
H         -4.67884       -0.13358        0.20080
H         -3.91979       -1.00187        1.34289
H         -1.16388       -2.84889       -0.04328
N          1.45280       -2.53506       -0.62435
H          1.38465       -2.96581       -1.54730
H          2.25778       -2.97025       -0.17342
H          3.43939       -1.44340       -0.55381
H          4.13016        1.25311        1.37995
H          4.64668       -0.11845        0.62543
