27
Coordinates from ORCA-job ./opt_b97-3c_parallel
N         -1.99177       -3.84976       -0.05081
C         -1.88241       -2.71495        0.00025
C         -1.67522       -1.29345        0.04821
C         -0.35392       -0.70799        0.16755
N          0.65853       -1.67998        0.26911
C          1.99405       -1.37284        0.08103
N          2.94203       -0.40567       -0.22055
C          2.44435        0.89108       -0.18921
N          3.42661        1.18913       -0.63479
H          3.59101        2.17049       -0.38740
H          4.26143        0.93718       -1.17491
C          1.21321        1.24444        0.33785
C          1.45917        1.73967        1.31203
N          1.50136        2.78435        1.77316
C         -0.05449        0.71778        0.15501
N         -0.97267        1.76949        0.03935
C         -2.35729        1.75186       -0.03807
C         -3.23567        0.69460       -0.09067
C         -2.92041       -0.70267       -0.07426
H         -3.80456       -1.33697       -0.15790
H         -4.29870        0.91765       -0.16430
N         -2.64213        2.82167       -0.04125
H         -3.51614        3.01708       -0.53647
H         -2.54837        3.59832        0.61795
N          2.29609       -2.43271        0.19189
H          3.27081       -2.68595        0.37130
H          1.80272       -3.32980        0.21180
