26
Coordinates from ORCA-job ./opt_b97-3c_parallel
N          5.32883        0.71396       -0.04937
C          4.29644        0.23079        0.03448
C          2.98149       -0.32541        0.12663
C          2.00464        0.64599        0.05301
C          0.55669        0.52327        0.09555
C          0.03088        1.80030        0.03649
N         -1.25705        2.28164        0.06181
C         -2.42509        1.55610        0.09854
C         -2.65346        0.14708        0.08008
C         -4.07848       -0.09934        0.04816
N         -5.20911       -0.25559        0.02037
C         -1.65438       -0.83708        0.11700
N         -2.12108       -1.85253        0.10795
H         -1.63782       -2.62169       -0.35621
H         -3.06854       -2.18790        0.28619
C         -0.18363       -0.72872        0.17125
C          0.40336       -1.98178        0.29725
N          1.68906       -2.45769        0.37791
C          2.84526       -1.72979        0.30468
H          3.56700       -2.55607        0.39624
H          0.39914       -3.07862        0.39439
H         -3.18882        2.34990        0.09281
N          0.11203        2.90470       -0.01707
H          0.09468        3.74418       -0.59717
H          0.82916        3.06669        0.68960
H          2.38139        1.66278       -0.05301
