21
Coordinates from ORCA-job ./opt_b97-3c_parallel
N         -3.99157       -0.71909        0.08536
C         -2.85012       -0.76625        0.06939
C         -1.42164       -0.82709        0.00806
C         -0.93193       -1.92395       -0.67231
N          0.25854       -2.55772       -0.74169
C          1.37875       -2.11434       -0.04227
C          1.55206       -0.79721        0.50357
C          2.73880       -0.46892        1.23176
N          3.70702       -0.20691        1.77988
C          0.76016        0.27086        0.21197
C          1.22212        1.16086       -0.72589
C          0.76459        2.52184       -0.90039
N         -0.25162        3.05311       -0.18903
C         -0.94123        2.36210        0.72768
N         -0.98379        1.17879        1.24739
C         -0.54802        0.16494        0.56618
H         -1.73198        2.99419        1.15868
H          1.09835        3.31463       -1.58596
H          2.03522        0.86902       -1.38403
H          2.15397       -2.89239        0.03004
H         -1.36959       -2.76939       -1.22462
