27
Coordinates from ORCA-job ./opt_b97-3c_parallel
N         -3.60273       -3.22602       -0.46294
C         -2.86040       -2.36056       -0.39534
C         -1.90865       -1.29382       -0.27830
C         -2.41129        0.02912       -0.15873
C         -1.67270        1.24799       -0.06630
C         -2.54370        2.40402       -0.04128
N         -3.19934        3.33899       -0.01805
C         -0.21327        1.34420        0.05542
N          0.07338        2.41964        0.15659
H         -0.24359        2.64189       -0.78876
H         -0.47554        3.01741        0.77869
C          0.82282        0.29140        0.04721
C          2.12101        0.88621        0.35876
N          3.41148        0.39870        0.36984
C          3.82723       -0.86959        0.04184
C          3.07964       -1.95826       -0.29654
C          1.65427       -2.06858       -0.37035
C          0.62829       -1.13401       -0.21655
C         -0.61115       -1.74794       -0.34588
H         -0.57156       -2.82511       -0.50470
H          1.38739       -3.09427       -0.61253
H          3.62455       -2.87566       -0.50206
H          4.91469       -1.03938        0.07521
N          2.84262        1.68487        0.62759
H          2.03766        2.21601        0.29336
H          3.18214        2.18359        1.44952
H         -3.49678        0.11846       -0.17664
