32
Coordinates from ORCA-job ./opt_b97-3c_parallel
N          0.24218       -3.74425        1.57737
C         -0.11238       -2.76793        1.10123
C         -0.51935       -1.50618        0.51189
C         -1.90611       -1.07218        0.58122
C         -2.40319       -0.08249       -0.35594
C         -3.74060       -0.24803       -0.90024
N         -4.80540       -0.35882       -1.29999
C         -1.70999        1.19899       -0.44583
C         -0.54992        1.52633        0.26162
C         -0.35111        2.93601        0.56770
N          0.19021        3.92986        0.40085
C          0.62122        0.64813        0.29681
N          1.74135        1.30197        0.69309
C          3.06799        0.94542        0.55601
C          3.63490       -0.00592       -0.25246
C          2.92215       -1.11153       -0.81817
N          3.59432       -1.80031       -1.36191
H          4.53663       -1.80354       -1.75332
H          3.20247       -2.71621       -1.58039
C          1.62548       -1.47784       -0.54105
C          0.55864       -0.77158        0.01113
H          1.38188       -2.48585       -0.87820
H          4.71094        0.05103       -0.41798
N          3.42585        1.83941        1.09702
H          4.41994        1.75899        1.30952
H          3.14989        2.77447        1.39881
N         -2.31151        1.99348       -0.95279
H         -2.07694        2.95608       -1.19316
H         -3.31143        1.89792       -1.13259
N         -2.61816       -1.81164        1.01304
H         -2.45996       -2.77501        1.30816
H         -3.62667       -1.71531        0.89418
