28
Coordinates from ORCA-job ./opt_b97-3c_parallel
N         -3.37710       -0.48708        2.06448
C         -2.59145       -0.00017        1.39575
C         -1.59078        0.65182        0.59455
C         -1.74444        2.08044        0.57374
N         -1.09827        2.97042       -0.25855
C          0.16308        2.73087       -0.61499
N          0.26668        3.72472       -1.08622
H         -0.24723        4.53736       -1.42719
H          1.12050        3.68720       -1.64326
C          1.08152        1.78210       -0.24515
C          0.77203        0.39626        0.07894
C         -0.53632       -0.07620        0.02291
C         -0.85134       -1.34826       -0.46144
C         -2.15102       -1.77703       -0.92009
N         -3.19252       -2.07143       -1.28720
C         -0.08831       -2.44052       -0.85150
C          1.28231       -2.66047       -0.50606
C          2.10048       -1.73414        0.12423
C          1.91659       -0.36853        0.31132
C          3.10752        0.23180        0.88620
N          3.38014        0.88854        1.78245
N          2.99132       -2.37871        0.30539
H          3.19325       -3.37401        0.22059
H          3.65879       -2.01256        0.98300
H          1.61174       -3.67288       -0.77455
H         -0.52877       -3.31486       -1.33842
H          2.12016        2.03498       -0.43517
H         -2.67522        2.48488        1.00276
