25
Coordinates from ORCA-job ./opt_b97-3c_parallel
N          4.57559        0.10919        1.53151
C          3.52845        0.21566        1.08856
C          2.22130        0.39767        0.53923
C          1.59756        1.70053        0.57426
N          0.34208        1.89813        0.11704
C         -0.50970        0.89166       -0.14231
N         -1.32889        1.83351       -0.51227
C         -2.61273        1.77855       -0.70652
C         -3.50064        0.75060       -0.53816
C         -3.11871       -0.45268       -0.01220
N         -1.89785       -0.89179        0.03273
C         -0.67377       -0.46649       -0.03348
C          0.45422       -1.22778        0.09756
C          0.49518       -2.60009        0.50207
N          0.50053       -3.70338        0.79724
C          1.70665       -0.70922       -0.08071
N          2.14751       -0.85848       -1.34517
H          1.95133       -1.72763       -1.84295
H          3.11350       -0.61706       -1.56907
N         -3.43992       -0.89565        0.94419
H         -4.43502       -0.70559        1.05861
H         -3.27494       -1.80362        1.37731
H         -4.52891        0.87982       -0.87001
H         -3.03152        2.53075       -1.39219
H          2.15376        2.57308        0.95080
