25
Coordinates from ORCA-job ./opt_b97-3c_parallel
N         -2.47615       -2.82600        0.60476
C         -2.19525       -1.93211       -0.04966
C         -1.64091       -0.96551       -0.01060
C         -0.30408       -0.75495       -0.05512
C          0.16752        0.53449        0.02047
N          1.27732        1.36338        0.05787
C          2.48103        0.68330       -0.02359
N          2.97226       -0.60213       -0.14927
C          1.95179       -1.53328       -0.19960
C          0.59556       -1.75612       -0.16538
H          0.25622       -2.79021       -0.22567
N          2.73120       -2.31596       -0.30329
H          2.82169       -2.94688       -1.10241
H          3.51090       -2.55966        0.31241
N          3.24601        1.47147        0.03728
H          4.23849        1.50187        0.26995
H          2.93847        2.44295       -0.00086
N         -0.12401        1.88319        0.12073
C         -1.48058        2.13196        0.18605
N         -2.69208        1.45536        0.19497
C         -2.55414        0.07723        0.10025
N         -3.62540        0.39937        0.18169
H         -4.05874       -0.06721        0.98198
H         -4.40416        0.62730       -0.44178
H         -1.30704        3.21882        0.24559
