24
Coordinates from ORCA-job ./opt_b97-3c_parallel
N         -5.46829       -0.25165       -0.71217
C         -4.34349       -0.30259       -0.52744
C         -2.94217       -0.40288       -0.26570
C         -2.45820        0.72741        0.32629
C         -1.33669        1.35339       -0.13920
C         -1.16824        2.61817        0.51233
N         -1.01494        3.60188        1.07100
C         -0.15932        0.66322       -0.19294
N          1.09012        0.96099       -0.34306
C          2.34876        0.65809       -0.35561
N          2.57885        1.66226       -0.74644
H          3.56685        1.41299       -0.77751
H          2.47914        2.48913       -1.33434
C          2.84475       -0.58500        0.17145
C          4.23867       -0.82404        0.36862
N          5.34613       -1.02144        0.56567
C          1.99587       -1.63804        0.47049
N          0.66038       -1.81768        0.33921
C         -0.07999       -0.68435        0.02954
N         -0.88878       -1.80853       -0.07892
C         -2.23692       -1.65348       -0.41002
H         -2.88908       -2.49057       -0.70733
H          2.37196       -2.61257        0.82174
H         -2.90867        1.04382        1.26904
