27
Coordinates from ORCA-job ./opt_b97-3c_parallel
N         -5.27844       -0.60350        0.79335
C         -4.23249       -0.25487        0.49136
C         -2.90983        0.17369        0.16080
C         -2.88123        1.52367       -0.02318
N         -1.93950        2.40849       -0.32983
C         -0.61329        2.05191       -0.44103
C          0.11387        0.80752       -0.31049
C          1.43904        1.20737       -0.35165
C          2.61397        0.40168       -0.15557
C          3.72941        1.31449       -0.06830
N          4.40728        1.85773        0.67395
C          2.70758       -0.97244       -0.09343
N          3.68904       -1.47409        0.03570
H          3.66187       -2.35654        0.54292
H          4.23872       -0.83183        0.60499
C          1.66034       -1.94547       -0.26983
C          0.28722       -1.70095       -0.31200
N         -0.08317       -2.74638       -0.40620
H          0.29684       -3.60173       -0.80723
H         -0.72471       -2.36581       -1.09947
C         -0.47198       -0.45389       -0.19756
C         -1.82390       -0.74211        0.00586
H         -2.16599       -1.76351        0.14345
H          2.05377       -2.97647       -0.30894
H          1.62978        2.27821       -0.45303
H         -0.73104        3.13926       -0.56309
H         -3.59282        2.36284        0.00428
