22
Coordinates from ORCA-job ./opt_b97-3c_parallel
N          4.93486        0.81485       -0.17071
C          3.79675        0.70919       -0.14815
C          2.37592        0.53745       -0.11465
C          1.82534       -0.78060       -0.09127
C          0.44316       -1.18742       -0.06534
C          0.36620       -2.62458       -0.05059
N          0.34009       -3.76732       -0.03178
C         -0.68242       -0.34616       -0.04814
C         -0.69580        1.06686       -0.03967
N         -1.85549        1.85370       -0.00471
C         -3.10541        1.27577        0.02182
N         -4.09049        0.44002        0.03883
C         -3.15391       -0.44901       -0.00025
C         -1.94720       -1.10273       -0.03898
H         -2.00032       -2.18421       -0.06133
H         -3.98270       -1.17422       -0.00151
H         -3.62654        2.24484        0.04990
C          0.33545        1.98651       -0.06315
C          1.74114        1.75299       -0.10445
H          2.34261        2.65969       -0.12373
H          0.09299        3.04857       -0.05500
H          2.56702       -1.57735       -0.09983
