30
Coordinates from ORCA-job ./opt_b97-3c_parallel
N         -3.12374       -2.64571       -2.00903
C         -3.30379       -1.98571       -1.09255
C         -2.34455       -1.05385       -0.57513
C         -2.78942        0.24330       -0.51137
C         -2.14487        1.35189        0.13837
C         -3.04513        2.47139        0.31293
N         -3.75476        3.34969        0.48749
C         -0.76870        1.40590        0.40986
N         -0.45092        2.40408        0.79176
H         -1.13433        3.06943        1.15417
H          0.45396        2.72382        1.13547
C          0.26601        0.46728        0.25967
C          1.59795        0.88389        0.10197
N          2.18271        1.81721       -0.02272
H          1.39697        2.39849       -0.31541
H          3.01879        2.27136       -0.39271
C          2.71078        0.09253       -0.40185
C          4.04504       -0.05675       -0.93251
N          4.72147        0.37894       -1.74517
C          2.86848       -1.27733       -0.29819
N          2.13176       -2.13143        0.50452
C          0.91749       -1.77169        1.05049
N          1.12758       -2.76172        1.49961
H          0.19380       -2.71442        1.90613
H          1.66449       -3.36999        2.11942
C         -0.00611       -0.95026        0.30964
C         -1.17849       -1.61874        0.03261
H         -1.17523       -2.70301        0.11055
H          3.29835       -2.29193       -0.35868
H         -3.79995        0.44788       -0.86367
