25
Coordinates from ORCA-job ./opt_b97-3c_parallel
N         -0.79354       -3.38239       -1.48663
C         -0.93081       -2.34165       -1.03678
C         -1.13827       -1.05128       -0.45506
C         -0.01094       -0.40128       -0.01587
C          0.66435       -0.94427        1.04057
C          1.76441       -1.54692        0.50919
C          2.82421       -0.87141       -0.02090
C          2.84720        0.54504       -0.31143
N          3.80937        1.00515       -0.59221
H          4.07220        1.85808       -1.08399
H          4.67982        0.52118       -0.37514
C          1.75830        1.39647       -0.17734
C          0.40892        0.90595        0.01643
N         -0.40629        1.96031        0.21994
C         -1.73998        1.60862        0.25006
N         -2.79381        0.72981        0.10849
C         -2.48890       -0.56242       -0.31125
H         -3.41561       -1.10324       -0.55889
N         -2.21565        2.57065        0.50308
H         -1.75032        3.39487        0.88188
H         -3.19074        2.83345        0.36586
H          1.91057        2.47293       -0.25412
H          3.75818       -1.41138       -0.16237
H          1.84959       -2.62790        0.60414
H          0.17384       -1.30575        1.93955
