32
Coordinates from ORCA-job ./opt_b97-3c_parallel
N         -4.93429       -1.27644       -1.30567
C         -3.90231       -0.93304       -0.95369
C         -2.61638       -0.46841       -0.48862
C         -1.69081       -1.43106       -0.83793
C         -0.35226       -1.49933       -0.29558
C         -0.01228       -2.87194       -0.57414
N          0.56116       -3.70900       -1.10124
C          0.45585       -0.42958        0.07859
C          1.75851       -0.77351        0.63493
C          1.91677       -1.93442        1.48365
N          2.03778       -2.82917        2.18386
C          2.95289       -0.10780        0.36944
N          3.98152       -0.41062        0.67573
H          3.99938       -1.29628        1.17914
H          4.94589       -0.08775        0.62716
C          3.18121        0.99799       -0.43488
C          2.25432        1.92573       -0.84769
N          2.62607        2.83898       -1.34938
H          3.58183        3.10157       -1.58324
H          2.03684        3.63029       -1.60132
C          0.88237        2.00767       -0.43282
C          0.05799        0.95521       -0.05727
C         -1.19072        1.38392        0.56085
C         -1.22416        2.64788        1.26523
N         -1.24261        3.63018        1.84991
C         -2.43413        0.64139        0.42467
N         -3.38127        1.07050        0.82168
H         -3.44835        1.98549        1.26526
H         -4.33526        0.77268        0.62288
H          0.41044        2.97452       -0.60263
H          4.21275        1.25848       -0.71175
H         -2.06502       -2.29633       -1.39596
