34
Coordinates from ORCA-job ./opt_b97-3c_parallel
N         -5.00246       -1.71785        0.06533
C         -3.98808       -1.20629       -0.06757
C         -2.71431       -0.53745       -0.20150
C         -1.49569       -0.88098        0.51558
N         -1.67193       -1.74079        1.19796
H         -0.77444       -2.00180        1.60402
H         -2.39513       -2.08507        1.82696
C         -0.20484       -0.37701        0.06155
C          0.94304       -1.27760        0.10255
N          0.77801       -2.37606        0.02693
H         -0.17685       -2.57772       -0.26611
H          1.37122       -3.08961       -0.39351
C          2.24618       -0.88653       -0.20004
C          3.28241       -1.75294       -0.73239
N          3.87833       -2.30396       -1.53794
C          2.85919        0.33073        0.31409
N          3.92956        0.64081        0.34271
H          4.33563        1.57440        0.32781
H          4.55385        0.04184       -0.19503
C          2.23240        1.31932        1.06629
C          0.83320        1.68306        0.93092
N          0.75989        2.66485        1.44398
H          0.93357        2.85864        2.42849
H         -0.24927        2.71525        1.31012
C         -0.03446        1.04591       -0.04162
C         -1.01525        1.91656       -0.66537
N         -0.93377        3.00720       -0.84992
H         -0.00589        3.22231       -0.48715
H         -1.13023        3.69673       -1.57278
C         -2.05656        1.50864       -1.48130
C         -2.85242        0.33854       -1.26187
H         -3.75230        0.31256       -1.87468
H         -2.50823        2.18519       -2.21184
H          2.84425        2.01307        1.66806
