25
Coordinates from ORCA-job ./opt_b97-3c_parallel
N         -5.10610       -0.83795        0.03228
C         -4.00521       -0.53530        0.03350
C         -2.63177       -0.11951        0.05238
C         -1.63355       -1.12216        0.23243
N         -0.54410       -1.04045        0.28967
C          0.37934       -0.46749        0.10950
C          0.31205        0.98752       -0.02112
N          1.44131        1.80783       -0.08848
C          2.69851        1.25420       -0.00299
N          3.56262        0.19276        0.10709
C          2.83746       -0.97858        0.13278
C          1.50210       -1.27524        0.04771
C          1.83523       -2.31311       -0.20690
N          1.58045       -3.41584       -0.38191
H          3.93474       -1.08609        0.18552
N          3.37108        2.12744       -0.01923
H          3.15004        2.93320        0.56553
H          4.33624        2.25409       -0.32260
C         -0.86902        1.72979       -0.07931
C         -2.23859        1.21077       -0.07560
N         -2.91278        2.08036       -0.20114
H         -2.96389        2.92101       -0.77568
H         -3.87405        1.76187       -0.08345
H         -0.75119        2.81125       -0.17033
H         -1.88490       -2.18751        0.35097
