25
Coordinates from ORCA-job ./opt_b97-3c_parallel
N         -4.79474       -1.04162        0.62473
C         -3.72457       -0.73548        0.36620
C         -2.39261       -0.35124        0.00233
C         -1.58277       -1.40546       -0.38938
C         -0.13310       -1.42280       -0.49819
C          0.78354       -0.39677       -0.24511
C          0.32098        0.96992       -0.27582
N          0.98110        2.17428       -0.11330
C          2.27849        2.26916        0.17757
C          3.32855        1.41133        0.35148
C          3.25732       -0.01174        0.24585
C          2.11268       -0.75051       -0.02453
C          2.64010       -2.09000        0.01914
N          2.85506       -3.16742        0.33540
H          4.23161       -0.47532        0.41085
H          4.31038        1.81714        0.57382
H          2.41382        3.35873        0.24929
C         -0.88272        1.40954       -0.71555
C         -1.98042        1.01833       -0.02651
N         -2.49062        1.96382        0.23687
H         -2.17029        2.78817        0.74210
H         -3.38243        1.69175        0.64690
H         -0.98384        1.72365       -1.75480
H          0.24120       -2.42590       -0.66901
H         -2.04325       -2.38487       -0.48998
