23
Coordinates from ORCA-job ./opt_b97-3c_parallel
N          5.76110        0.05240       -0.03213
C          4.62046        0.08931        0.01417
C          3.19465        0.18089        0.06344
C          2.57630       -0.97141       -0.36052
C          1.17314       -1.26567       -0.34794
C          0.10090       -0.43258       -0.05365
C          0.13516        1.00228        0.23353
N         -0.92585        1.83664        0.08381
C         -2.22523        1.66041       -0.23428
C         -2.89123        0.41177       -0.05507
C         -4.27572        0.24998       -0.36123
N         -5.38046        0.14842       -0.63011
C         -2.31367       -0.63654        0.57005
C         -1.18434       -1.10535       -0.01348
C         -1.47354       -2.49227       -0.23726
N         -1.67098       -3.60462       -0.40422
H         -2.56794       -0.88507        1.59998
H         -2.87546        2.49483       -0.54031
N          1.26256        1.75107        0.51534
C          2.58889        1.38175        0.53727
H          3.22601        2.22752        0.84013
H          0.98255       -2.29697       -0.62567
H          3.20330       -1.80365       -0.67677
