25
Coordinates from ORCA-job ./opt_b97-3c_parallel
N         -4.21142       -0.03232       -1.16018
C         -3.16202        0.17571       -0.76160
C         -1.85349        0.48258       -0.25608
C         -0.76639       -0.40490       -0.13395
C         -1.18181       -1.80221       -0.12033
C         -0.45185       -2.96073       -0.00436
C          0.95385       -3.14165        0.14205
C          1.90951       -2.16779        0.12486
C          1.74055       -0.80874       -0.04160
C          3.08257       -0.28075       -0.04570
N          4.12541        0.18659       -0.04393
C          0.64456        0.03980       -0.14436
N          0.93581        1.33509       -0.45846
C          0.15048        2.35904        0.02348
C         -0.71763        2.23101        1.05844
C         -1.75336        1.81447        0.28592
H         -2.63221        2.44990        0.19763
H         -0.84805        3.02447        1.79244
N          0.80210        3.09312       -0.48858
H          1.77354        3.25180       -0.75899
H          0.29177        3.92729       -0.77845
H          2.91737       -2.57275        0.22974
H          1.27007       -4.17543        0.25151
H         -1.00685       -3.89494        0.00838
H         -2.24474       -2.01073       -0.15885
