24
Coordinates from ORCA-job ./opt_b97-3c_parallel
N          1.92824        3.57321        0.45452
C          1.67368        2.47134        0.29925
C          1.34463        1.08514        0.14331
C          2.54783        0.26568        0.08829
N          2.67205       -1.04062       -0.22703
C          1.70425       -1.95498       -0.16165
N          2.34269       -2.78908       -0.51244
H          2.08281       -3.53172       -1.16470
H          3.30331       -3.00990       -0.23973
C          0.56311       -1.78333        0.55182
C         -0.26394       -0.76917        0.17758
N         -1.43560       -1.43501        0.16886
C         -2.55647       -0.69286       -0.06439
N         -3.21119        0.46665       -0.32281
C         -2.39992        1.57405       -0.42696
C         -0.96267        1.64896       -0.26630
C          0.00459        0.65742       -0.00131
H         -0.65686        2.67891       -0.41291
H         -2.97535        2.48790       -0.64558
N         -3.48052       -1.29610       -0.03428
H         -3.78438       -1.79541        0.80184
H         -4.31781       -1.19875       -0.61120
H          0.49088       -2.21160        1.55282
H          3.56457        0.69062        0.10816
