25
Coordinates from ORCA-job ./opt_b97-3c_parallel
N          3.24306        1.02910       -0.95270
C          2.73025        0.39933        0.11712
C          3.31430       -0.82655       -0.00296
C          2.41000       -1.58245        0.67583
C          1.19129       -1.88739        0.14751
C          0.09845       -0.94758        0.04026
N         -1.12018       -1.55517       -0.28200
C         -2.27102       -0.78893       -0.33638
N         -2.89532        0.43864       -0.18705
C         -2.02423        1.43591        0.21711
N         -0.75831        1.29091        0.45277
C          0.25159        0.48464        0.33343
C          1.57666        1.06073        0.42286
H          1.62627        2.12055        0.66492
N         -2.42130        2.45305        0.38274
H         -1.85794        3.29787        0.48877
H         -3.38740        2.75425        0.52003
N         -2.98089       -1.58440       -0.62885
H         -2.79922       -2.58895       -0.66555
H         -3.95400       -1.48094       -0.91988
H          0.97436       -2.92561       -0.09083
H          2.71033       -2.04479        1.61422
H          4.38579       -0.98624        0.09270
H          3.29665        2.04697       -0.96694
H          4.11428        0.69111       -1.36350
