30
Coordinates from ORCA-job ./opt_b97-3c_parallel
N          4.44176        1.68459       -0.59424
C          3.49184        1.09422       -0.35834
C          2.26172        0.37704       -0.07567
C          2.44553       -0.92026        0.53819
C          1.47579       -1.98365        0.63401
C          0.13910       -1.95937        0.13359
C         -0.68138       -0.80102       -0.09789
C         -2.02606       -1.19228       -0.46952
C         -3.00521       -0.33586       -0.86937
C         -3.33320        0.50932        0.14471
N         -2.59479        1.57855        0.59059
C         -1.28346        1.56223        0.27697
C         -0.29867        0.60216       -0.01382
C          1.02639        1.02577       -0.20221
N          1.06266        2.10253       -0.50989
H          1.93225        2.62544       -0.40118
H          0.80643        2.18919       -1.49268
H         -1.23003        2.63767        0.50876
N         -4.29316        0.75841        0.62921
H         -4.70952        1.30805        1.38017
H         -4.72130       -0.16598        0.67936
H         -3.04951        0.01648       -1.90210
N         -2.65514       -2.08281       -0.67475
H         -3.34682       -2.61171       -1.20804
H         -1.75553       -2.50403       -0.90599
H         -0.34279       -2.93236        0.11056
H          1.79275       -2.97393        0.97210
N          3.38370       -1.40125        0.88331
H          3.63539       -2.11643        1.56441
H          4.17516       -0.76031        0.83769
