29
Coordinates from ORCA-job ./opt_b97-3c_parallel
N          4.42740        1.46932        1.07757
C          3.42718        1.05717        0.70915
C          2.15436        0.57482        0.22188
C          1.90025       -0.74198       -0.19858
N          2.82909       -1.34194       -0.34177
H          2.82046       -2.19591       -0.89877
H          3.80556       -1.05406       -0.27827
C          0.58065       -1.41436       -0.23708
C          0.61897       -2.83465       -0.51701
N          0.31281       -3.31644       -1.50860
C         -0.66780       -0.82197        0.03565
C         -1.73456       -1.69020        0.52030
C         -3.04652       -1.36932        0.77967
C         -3.71077       -0.19083        0.57534
C         -3.19702        0.98108        0.09057
N         -1.97785        1.39347       -0.26435
C         -0.84968        0.58270       -0.23489
C          0.08201        1.40509       -0.77447
C          1.13592        1.57916        0.06145
N          1.01996        2.66482        0.25989
H          2.02879        2.74911        0.38777
H          0.62416        3.52753        0.63095
H          0.22628        1.43690       -1.85355
N         -3.66633        1.95454       -0.13792
H         -3.48778        2.73947       -0.76416
H         -4.67966        1.90070       -0.04206
H         -4.77058       -0.20046        0.81752
H         -3.65147       -2.18099        1.17469
H         -1.47191       -2.71517        0.75937
