24
Coordinates from ORCA-job ./opt_b97-3c_parallel
N         -2.74860       -3.01763        0.16636
C         -2.33609       -1.95578        0.08557
C         -1.77436       -0.64041        0.00590
C         -2.90953        0.13932       -0.13760
N         -3.13192        1.45234       -0.25215
C         -1.96844        2.15766       -0.19157
N         -0.61421        2.29082       -0.08437
C          0.12393        1.12247       -0.02009
N          1.40239        1.63387        0.20370
C          2.51598        0.83594        0.07562
C          2.61654       -0.34234       -0.58460
C          1.94010       -1.36146        0.00116
N          2.62019       -2.22286        0.10886
H          3.56840       -2.59545        0.17596
H          2.02224       -3.03829       -0.03306
C          0.52283       -1.41573        0.22747
C         -0.35805       -0.26722        0.03250
H          0.11393       -2.38973        0.48226
H          2.85293       -0.36694       -1.64958
N          3.42612        1.39559        0.36193
H          3.85206        2.31361        0.50047
H          4.13026        0.72042        0.66531
H         -2.65337        3.01632       -0.28270
H         -4.00822        0.07409       -0.20065
