28
Coordinates from ORCA-job ./opt_b97-3c_parallel
N         -5.10650       -0.94576        0.33314
C         -4.00528       -0.67881        0.18551
C         -2.60855       -0.35369        0.04762
C         -1.93387       -1.44442       -0.44803
C         -0.49362       -1.60116       -0.43020
C         -0.41636       -2.99473       -0.80688
N          0.16258       -3.55720       -1.61856
C          0.50470       -0.66690       -0.14025
C          1.73926       -1.37345        0.16731
C          2.96059       -0.82960        0.46381
N          3.56368        0.33139        0.23213
C          2.88529        1.37091       -0.36116
C          1.47454        1.62754       -0.43591
C          1.26038        2.95410       -0.94881
N          1.11855        4.00055       -1.38428
C          0.42935        0.72834       -0.14865
C         -0.80779        1.44308        0.15333
C         -2.07404        0.93741        0.38637
N         -2.74706        1.73638        0.76048
H         -2.67575        2.73459        0.95262
H         -3.72244        1.48618        0.92222
H         -0.70510        2.51259        0.33990
H          3.65150        2.13514       -0.56820
N          3.88461       -1.30782        0.83649
H          3.67526       -2.25116        1.16346
H          4.82361       -1.10236        1.17787
H          1.67847       -2.44533        0.32044
H         -2.55924       -2.29910       -0.73086
