27
Coordinates from ORCA-job ./opt_b97-3c_parallel
N         -0.75483       -3.85412       -0.03675
C         -1.04669       -2.74927       -0.03155
C         -1.34743       -1.33719       -0.02255
C         -2.72836       -1.29429       -0.05390
C         -3.55179       -0.13484       -0.01479
C         -3.12270        1.16836        0.01980
N         -3.95928        1.88897        0.05251
H         -4.93617        1.64227       -0.10380
H         -3.96470        2.82483        0.45616
C         -1.79747        1.72527       -0.00956
C         -0.55666        1.09401       -0.02308
C          0.44265        2.06805       -0.07011
C          1.81609        2.02789       -0.07998
C          2.63325        0.86280        0.01219
C          4.04432        1.11425        0.01474
N          4.98503        0.46525       -0.02484
C          2.19611       -0.43225        0.10332
N          0.90778       -0.91699        0.07726
C         -0.33654       -0.28459        0.00735
N          2.45643       -1.50458        0.18747
H          2.38588       -2.46671        0.51941
H          3.45424       -1.32301        0.06283
H          2.33357        2.98283       -0.14195
H          0.12130        3.10526       -0.12159
H         -1.83359        2.81462       -0.00812
H         -4.62147       -0.34705       -0.01557
H         -3.31022       -2.21653       -0.08633
