24
Coordinates from ORCA-job ./opt_b97-3c_parallel
N         -1.43090       -1.20031       -2.74400
C         -1.60194       -0.90699       -1.65475
C         -1.72872       -0.52979       -0.28072
C         -2.89179       -0.10369        0.29641
C         -3.11438        1.19293        0.51151
C         -2.16998        2.11907        0.16922
N         -0.87383        2.29283       -0.13391
C         -0.01577        1.25496       -0.15744
N          1.29828        1.62060       -0.44757
C          2.28819        0.66235       -0.28583
N          2.74904       -0.59620        0.08055
C          1.75278       -1.47042        0.49662
N          2.29561       -2.40037        0.76779
H          1.80458       -3.29918        0.76582
H          3.22711       -2.63779        1.12155
C          0.38938       -1.35421        0.47400
C         -0.39193       -0.12838        0.10945
H         -0.23150       -2.24941        0.55213
N          3.18366        1.23662       -0.59785
H          3.26478        2.22727       -0.84103
H          4.12207        0.86467       -0.76155
H         -2.68351        3.09404        0.14642
H         -4.05365        1.51563        0.95778
H         -3.65754       -0.83215        0.56124
