29
Coordinates from ORCA-job ./opt_b97-3c_parallel
N          1.66874        3.74923        1.39637
C          1.73777        2.68179        0.99903
C          1.78436        1.32506        0.51867
C          3.14168        0.81137        0.40590
C          3.54755       -0.40927       -0.24363
C          2.66885       -1.53169       -0.33557
C          1.56921       -1.64549        0.44668
C          0.56786       -0.76760        0.18808
N         -0.46069       -1.63821        0.27354
C         -1.81410       -1.36613        0.16982
C         -2.44904       -0.20646       -0.22740
C         -3.84716       -0.52305       -0.38163
N         -4.70409       -1.27769       -0.32237
C         -1.84045        1.08224       -0.41715
N         -2.48827        1.92387       -0.73647
H         -2.11117        2.84560       -0.95896
H         -3.43101        1.91081       -1.12654
C         -0.53621        1.44192       -0.13381
C          0.58084        0.67436        0.18713
H         -0.34841        2.50837       -0.24855
N         -1.83471       -2.44070        0.44685
H         -2.85027       -2.42971        0.33245
H         -1.65237       -3.13652        1.17057
H          1.62923       -2.18627        1.39214
N          3.04691       -2.44747       -0.82169
H          4.01652       -2.21183       -1.03395
H          2.91524       -3.39583       -1.17136
H          4.58157       -0.50143       -0.56908
H          3.94456        1.51540        0.61262
