28
Coordinates from ORCA-job ./opt_b97-3c_parallel
N         -5.00359       -1.29392        0.38035
C         -3.93100       -0.91383        0.27583
C         -2.60058       -0.40080        0.12547
C         -1.76599       -1.47207       -0.04220
N         -0.46331       -1.67281       -0.24411
C          0.45965       -0.64555       -0.28371
C          1.59168       -1.28047       -0.66564
C          2.67469       -1.17846        0.13815
N          3.11961       -2.14386        0.43451
H          4.02712       -2.20958        0.89118
H          2.58217       -2.95985        0.72176
C          3.39365        0.04313        0.32442
C          2.84962        1.31683       -0.09803
N          3.55493        2.16534       -0.06553
H          4.51724        1.91799       -0.28790
H          3.32873        2.98961       -0.61849
C          1.45050        1.66534       -0.30833
C          0.30206        0.78088       -0.19010
C         -0.92681        1.52940       -0.04123
C         -2.25823        0.99518        0.11978
N         -2.99150        1.81544        0.24449
H         -3.93991        1.47996        0.40540
H         -2.89653        2.68645        0.76304
H         -0.82918        2.61415       -0.01723
H          1.24379        2.72779       -0.41600
H          4.40674       -0.00276        0.72000
H          1.71789       -1.57404       -1.70671
H         -1.76912       -2.57080       -0.10004
