27
Coordinates from ORCA-job ./opt_b97-3c_parallel
N          5.25480        0.56832        0.05713
C          4.12516        0.42080        0.11167
C          2.71571        0.17765        0.14713
C          1.82872        1.15615        0.70765
C          0.40695        1.20990        0.46320
C         -0.21186        2.43423        0.88000
N         -0.73889        3.38326        1.23279
C         -0.37740        0.06205        0.00456
C          0.09553       -1.25879        0.37513
N          1.23118       -1.77152       -0.25271
C          2.34720       -1.03783       -0.38656
N          2.75832       -1.93982       -0.88824
H          3.69561       -1.53448       -0.95329
H          2.83443       -2.82746       -1.38838
C         -0.58310       -2.44720        0.35736
C         -1.88580       -2.33764        0.69864
N         -3.03707       -1.64167        0.45433
C         -2.92944       -0.47252       -0.27860
C         -1.74282        0.35030       -0.48736
C         -1.98949        1.51173       -1.29262
N         -2.21307        2.40860       -1.96164
N         -4.02309       -0.47150       -0.46565
H         -4.23967        0.37669       -0.99462
H         -4.93276       -0.89562       -0.27249
H         -2.39054       -3.12742        1.27839
H         -0.09766       -3.38415        0.64896
H          2.29454        2.04898        1.12199
