34
Coordinates from ORCA-job ./opt_b97-3c_parallel
N         -5.02824       -0.44417        1.95993
C         -4.05367       -0.27773        1.38570
C         -2.84195       -0.02416        0.65718
C         -1.78925       -0.96400        0.32291
N         -2.01120       -1.99219        0.67863
H         -2.81359       -2.45268        1.10892
H         -1.21668       -2.61600        0.81832
C         -0.46763       -0.48836       -0.09022
C          0.49500       -1.43623       -0.63551
N          0.02283       -2.23515       -1.25294
H          0.66662       -2.80630       -1.80135
H         -0.82623       -2.78860       -1.14260
C          1.85215       -1.38597       -0.30858
C          2.64574       -2.52819       -0.73125
N          3.24182       -2.76377       -1.67898
C          2.38101       -0.41954        0.64992
N          3.27067       -0.77932        1.21944
H          3.75232       -1.66829        1.08792
H          3.86975       -0.22138        1.82759
C          2.01040        0.93042        0.67590
C          2.80937        1.83786        1.47620
N          3.41080        2.58321        2.09839
C          1.09620        1.48772       -0.30864
N          1.15794        2.56493       -0.58758
H          1.07471        3.21243        0.19889
H          2.14993        2.56150       -0.83319
C         -0.22666        0.89129       -0.41469
C         -1.15314        1.54440       -1.31734
N         -2.45282        1.85049       -0.95090
C         -3.05142        1.19481        0.05746
H         -3.88681        1.91253        0.08815
N         -1.46666        2.35388       -2.00436
H         -1.68607        2.53894       -2.98314
H         -0.49799        2.65139       -1.87016
