26
Coordinates from ORCA-job ./opt_b97-3c_parallel
N          3.79156        2.31331       -0.08276
C          2.95205        1.53730       -0.11478
C          1.90539        0.54802       -0.11800
C          0.68325        1.18253       -0.20265
C         -0.61315        0.71450       -0.13526
C         -1.52936        1.74133       -0.35546
N         -2.85887        1.92113       -0.46133
C         -3.63852        0.89912        0.00935
C         -3.30275       -0.13087        0.81163
C         -2.39254       -1.01794        0.34913
C         -1.01467       -0.68056        0.03198
C         -0.17696       -1.86106       -0.10955
N         -0.47067       -2.93117       -0.11519
H         -1.21998       -2.61122       -0.72585
H         -0.05536       -3.74316       -0.56787
C          1.26887       -1.95042       -0.19600
C          2.20532       -0.85909       -0.10701
N          3.23784       -1.26331       -0.08645
H          3.83415       -0.56007        0.34664
H          3.52247       -2.16278        0.29628
H          1.72444       -2.94926       -0.25954
H         -2.67160       -2.06428        0.41260
H         -3.72503       -0.22747        1.80896
H         -4.72217        1.06456       -0.08502
H         -1.63432        2.80993       -0.59669
H          0.73835        2.26723       -0.30887
