30
Coordinates from ORCA-job ./opt_b97-3c_parallel
N          5.48643        0.41005        0.53266
C          4.39889        0.18895        0.26094
C          3.01021       -0.09358       -0.03947
C          3.04449       -1.29544       -0.70851
C          1.92592       -2.10045       -1.05623
C          0.61692       -1.93653       -0.68904
C         -0.11998       -0.75303       -0.24961
C         -1.45631       -0.99913        0.09763
N         -1.74259       -2.02367        0.43664
H         -0.89543       -2.30467        0.92716
H         -2.51887       -2.22372        1.06566
C         -2.57780       -0.16696        0.12034
C         -3.93205       -0.56343        0.49273
N         -4.97898       -0.89170        0.81287
C         -2.70554        1.14239       -0.32871
C         -1.60000        2.05297       -0.54670
C         -0.26791        1.81414       -0.30909
C          0.48097        0.56924       -0.19206
C          1.88727        0.81742        0.13397
N          2.27545        1.77641        0.54365
H          3.10753        1.87109        1.12439
H          1.47529        1.88823        1.16378
H          0.32555        2.72042       -0.37133
H         -1.78118        3.10415       -0.80714
N         -3.53118        1.86826       -0.52865
H         -4.40971        1.35689       -0.46476
H         -3.61433        2.48530       -1.33426
H          0.02022       -2.82083       -0.89345
H          2.18177       -3.04907       -1.51871
H          3.99734       -1.76372       -0.95662
