27
Coordinates from ORCA-job ./opt_b97-3c_parallel
N         -5.60896       -0.14448       -0.56979
C         -4.48457       -0.13976       -0.36594
C         -3.06825       -0.15278       -0.14885
C         -2.55482        1.11978       -0.17925
C         -1.18175        1.48189        0.08741
C         -1.29476        2.92475        0.10223
N         -1.30801        4.03082       -0.18915
C         -0.05251        0.67373        0.20054
N          0.99611        1.54158        0.47312
C          2.35479        1.36957        0.56273
C          3.17151        0.28429        0.14344
C          4.58183        0.54593        0.09905
N          5.70278        0.76098        0.03084
C          2.63685       -1.01638       -0.16455
N          3.29429       -1.86343       -0.45307
H          4.19767       -1.53421       -0.79048
H          3.04396       -2.66332       -1.03155
C          1.26441       -1.45110       -0.01565
C          0.09030       -0.71041        0.14067
C         -1.04497       -1.62867        0.23335
C         -1.09984       -3.06133        0.41853
N         -0.94381       -3.97226        1.09245
C         -2.41187       -1.38885        0.13545
H         -3.15251       -2.19376        0.18993
H          1.17740       -2.52609       -0.15733
H          2.64744        2.39356        0.83957
H         -3.28194        1.91818       -0.35907
