32
Coordinates from ORCA-job ./opt_b97-3c_parallel
N          5.06349        0.32203        0.40021
C          3.92675        0.21661        0.44518
C          2.49753        0.03273        0.49922
C          2.08831       -0.99484        1.39827
N          1.53314       -2.09748        0.79514
C          0.41782       -1.94503       -0.00864
N          0.66326       -3.02430       -0.07895
H         -0.25494       -2.94087       -0.51959
H          0.74133       -3.99790        0.21215
C         -0.41904       -0.83011       -0.05876
C         -1.76979       -1.19914       -0.47385
N         -2.09710       -2.21150       -0.80451
H         -2.22484       -1.89929       -1.76912
H         -2.98339       -2.63658       -0.52747
C         -2.95086       -0.46730       -0.51555
C         -3.13599        0.88968       -0.08785
N         -4.19107        1.22036       -0.10840
H         -5.02527        0.97708       -0.63994
H         -4.46911        1.95659        0.53887
C         -2.18581        1.81608        0.27396
C         -0.80415        1.65547        0.28000
N         -0.47780        2.68455        0.54701
H          0.39469        2.87643        1.03702
H         -0.94825        3.58282        0.44182
C          0.03651        0.54564        0.14358
C          1.47547        0.82365       -0.02736
N          1.91910        1.73675       -0.48309
H          2.78289        2.13087       -0.85575
H          1.17339        2.37819       -0.75323
H         -2.62700        2.79768        0.51758
H         -3.89181       -0.93942       -0.83342
H          2.84630       -1.60071        1.91953
