27
Coordinates from ORCA-job ./opt_b97-3c_parallel
N          2.98039        2.89539        0.19849
C          2.44251        1.88828        0.17223
C          1.71959        0.63792        0.13029
C          2.52173       -0.39578       -0.34829
C          2.29105       -1.81777       -0.18449
C          1.15926       -2.37529        0.35869
N         -0.12441       -1.86451        0.36650
C         -0.57067       -0.54967        0.19861
C          0.28676        0.60398        0.39236
N         -0.20834        1.80493        0.77947
C         -1.45321        2.31727        0.82770
N         -2.55841        1.91900        0.08625
C         -2.66043        0.59071       -0.27198
C         -1.95471       -0.50051        0.19407
C         -2.76772       -1.25326        0.36361
N         -3.19690       -2.18670       -0.13927
N         -3.46435        1.14612       -0.82659
H         -3.92619        0.36195       -1.29187
H         -4.06098        1.95057       -1.04438
H         -1.22892        3.32342        1.22065
N          0.88324       -3.41327        0.62326
H          1.80610       -3.84584        0.69759
H          0.25607       -4.06300        1.10130
H          3.08800       -2.53498       -0.41590
N          3.55478       -0.41459       -0.76178
H          3.84230        0.54909       -0.94007
H          4.26109       -0.99032       -1.22172
