25
Coordinates from ORCA-job ./opt_b97-3c_parallel
N          4.32087        0.07085       -1.33452
C          3.27010        0.07639       -0.88518
C          1.96177        0.06120       -0.28676
C          1.29093       -1.20091       -0.15355
N          1.48578       -2.25579       -0.42787
H          2.48119       -2.19289       -0.63413
H          1.28252       -3.23617       -0.24390
C          0.23391       -1.38520        0.67339
C         -0.92742       -0.78365        0.32100
C         -2.06303       -1.64139        0.02684
C         -3.36924       -1.24189       -0.46315
N         -3.82538        0.00519       -0.67041
C         -3.19702        1.09798       -0.24888
N         -2.17791        1.26659        0.51170
C         -1.05294        0.64655        0.40703
C          0.01718        1.52333        0.55798
C          1.41613        1.24178        0.22272
N          1.93126        2.22185        0.30021
H          2.94661        2.18935        0.37811
H          1.70997        2.96689       -0.35787
H         -0.23763        2.55537        0.81809
H         -3.72355        2.03263       -0.49355
H         -4.19003       -1.89550       -0.79325
H         -1.88898       -2.71178        0.07689
H          0.40070       -1.63029        1.72233
