21
Coordinates from ORCA-job ./opt_b97-3c_parallel
N         -3.13467       -1.29105       -0.01892
C         -2.30380       -0.56850       -0.05028
N         -2.85735        0.68507        0.00331
C         -1.97612        1.70403       -0.00053
C         -0.59621        1.85880        0.00358
C          0.43061        0.81270       -0.00182
C          1.72970        1.44469        0.07512
C          3.00573        0.80124        0.11378
N          3.33077       -0.53255        0.07189
C          2.46178       -1.59108       -0.02261
C          1.09292       -1.63851       -0.08884
C          0.15107       -0.54935       -0.07252
N         -1.07569       -0.92916       -0.14799
H          0.66996       -2.63727       -0.16059
H          3.27998       -2.32739       -0.02173
H          4.00569        1.25594        0.18352
H          1.78518        2.52779        0.12406
H         -0.24474        2.88655        0.03032
H         -2.55693        2.63936        0.02304
H         -4.12918       -1.08320       -0.09709
H         -3.06587       -2.25863        0.29280
