24
Coordinates from ORCA-job ./opt_b97-3c_parallel
N          5.16410        0.07062        0.41385
C          4.03336        0.17310        0.28301
C          2.61307        0.28001        0.15459
C          1.98156        1.52017        0.46999
N          0.70284        1.90988        0.14907
C         -0.35838        1.09886       -0.18852
C         -1.28537        2.05371       -0.47479
C         -2.57556        1.86802       -0.13765
N         -3.47908        0.89237        0.17684
C         -3.02957       -0.41719        0.21131
C         -1.75256       -0.93752        0.01745
C         -0.48892       -0.33967       -0.10996
C          0.60439       -1.19298       -0.24478
C          0.60535       -2.61887       -0.45880
N          0.16392       -3.28772       -1.27241
C          2.02708       -0.90123       -0.24647
H          2.72091       -1.71928       -0.45869
H         -1.76468       -2.01942        0.07755
N         -4.02932       -0.83300        0.42177
H         -5.00894       -0.56709        0.51803
H         -3.92238       -1.69594        0.95454
H         -3.06195        2.85311       -0.21381
H         -1.04403        2.85490       -1.17679
H          2.59667        2.37797        0.78312
