25
Coordinates from ORCA-job ./opt_b97-3c_parallel
N         -5.03554       -1.27370        0.36276
C         -3.93358       -1.01881        0.20794
C         -2.54649       -0.69920        0.05396
C         -2.10757        0.64127        0.26468
C         -0.80578        1.19217        0.01974
C         -0.74870        2.62211        0.13850
N         -0.65649        3.75628        0.24087
C          0.41859        0.46362       -0.27914
C          1.49764        1.22755       -0.60160
C          2.49968        1.33371        0.29741
N          3.40349        0.31937        0.51080
C          3.11109       -0.96436        0.05989
N          4.13618       -1.33695        0.23068
H          5.10588       -1.02122        0.21688
H          4.13010       -2.20507        0.76494
C          1.88524       -1.52032       -0.30334
C          0.59220       -0.98002       -0.29814
C         -0.40394       -1.93711       -0.38556
C         -1.82352       -1.81260       -0.29155
H         -2.35605       -2.75368       -0.42106
H         -0.10294       -2.97134       -0.53038
H          1.95463       -2.58914       -0.49047
H          2.53462        2.40340        0.55801
H          1.53831        1.76292       -1.54911
H         -2.88955        1.34976        0.53081
