30
Coordinates from ORCA-job ./opt_b97-3c_parallel
N         -3.13950       -3.32796        1.25136
C         -2.55897       -2.43112        0.84912
C         -1.78707       -1.32310        0.34198
C         -2.29952       -0.21841       -0.35099
N         -3.35495       -0.33690       -0.68516
H         -3.90327        0.42446       -1.08273
H         -4.02546       -1.04914       -0.39655
C         -1.65312        1.10547       -0.45032
C         -2.43381        2.18283       -1.03106
N         -2.37990        2.73974       -2.02877
C         -0.43670        1.44442        0.16523
N         -0.14503        2.49523        0.39735
H          0.62201        3.07321        0.05741
H         -0.97312        3.09218        0.36995
C          0.61179        0.44687        0.31753
C          1.81086        0.89210        1.02301
N          3.08293        0.37717        0.75151
C          3.23333       -0.54283       -0.27738
N          2.59099       -1.21795       -1.17684
C          1.33393       -1.51467       -1.07033
C          0.51049       -0.76980       -0.27800
C         -0.36693       -1.47244        0.48210
H         -0.01847       -2.33771        1.04152
H          1.54469       -2.59468       -1.03661
N          4.31831       -0.67686       -0.42586
H          4.77836       -1.03629       -1.26116
H          4.83660        0.16008       -0.15866
N          2.54754        1.47829        1.60084
H          1.59537        1.82641        1.71220
H          3.03945        1.71753        2.46152
