30
Coordinates from ORCA-job ./opt_b97-3c_parallel
N          5.84738        0.81668       -0.61505
C          4.72791        0.76639       -0.39065
C          3.32132        0.74362       -0.12146
C          2.74748        1.80730        0.64054
C          1.35609        2.09457        0.79085
C          0.22812        1.26108        0.45167
C         -0.98898        2.03925        0.50882
C         -2.18420        1.64276       -0.21381
N         -2.60775        2.63716       -0.48376
H         -3.56180        2.54331       -0.82931
H         -2.27294        3.54462       -0.80249
C         -2.66992        0.34732       -0.36648
C         -3.96819        0.34918       -1.01645
N         -5.08591        0.34887       -1.25632
C         -2.13082       -0.77489        0.38222
N         -2.90733       -1.54940        0.58848
H         -3.92014       -1.49987        0.48889
H         -2.69635       -2.46397        0.98508
C         -0.78107       -0.95784        0.67729
C         -0.43792       -2.15016        1.42446
N         -0.15265       -3.07123        2.03898
C          0.27701       -0.13760        0.10556
C          1.37844       -0.83356       -0.38409
C          1.37347       -2.15328       -0.96471
N          1.06289       -3.00694       -1.65866
C          2.72922       -0.38568       -0.64090
H          3.39478       -1.06404       -1.18189
H         -0.85289        3.09402        0.76731
H          1.16019        3.07907        1.20487
H          3.42852        2.58171        0.98230
