22
Coordinates from ORCA-job ./opt_b97-3c_parallel
N          2.32145        2.11846       -0.42148
C          2.12051        1.18710        0.13238
N          0.87045        1.47697        0.33410
C         -0.30432        0.93555        0.24464
C         -1.44225        1.55893        0.54189
C         -2.62719        0.90938        0.36482
N         -3.22795       -0.20816       -0.06216
C         -2.53783       -1.27150       -0.52030
N         -1.15419       -1.43206       -0.57940
C         -0.36005       -0.36208       -0.20239
N          0.58595       -1.23785       -0.39163
C          1.86618       -1.17467       -0.16904
C          2.65194       -0.05799       -0.06691
H          3.73225       -0.16056       -0.15695
N          2.05721       -2.17340        0.25987
H          2.97302       -2.11863        0.70427
H          1.82336       -3.16418        0.20870
H         -3.35287       -1.96794       -0.77346
H         -3.52079        1.48676        0.64770
H         -1.43474        2.58772        0.89713
H          1.97696        3.07769       -0.44435
H          3.31363        2.16810       -0.64961
