32
Coordinates from ORCA-job ./opt_b97-3c_parallel
N         -5.04477       -1.75413        0.41724
C         -4.03430       -1.26877        0.19962
C         -2.76325       -0.62511       -0.03237
C         -1.42566       -1.18793       -0.13107
N         -1.57170       -2.28464       -0.03847
H         -0.95029       -2.95703        0.41257
H         -2.41542       -2.81437       -0.26713
C         -0.17828       -0.40844       -0.13424
C          1.03971       -1.23674       -0.21979
N          1.14311       -2.28909       -0.55407
H          1.89972       -2.81952       -0.99279
H          0.29033       -2.77958       -0.82763
C          2.36580       -0.97539        0.16081
C          3.63619       -1.68115        0.20360
N          4.51488       -1.64046       -0.52935
C          2.85837        0.21859        0.82231
N          2.23568        1.40719        0.71348
C          1.03830        1.75617        0.20679
N          1.42473        2.79373        0.33439
H          1.30500        3.34840        1.18844
H          2.02768        3.37179       -0.26036
C         -0.10818        1.05011       -0.13320
C         -1.16201        1.94025       -0.61494
N         -2.53680        1.77838       -0.66814
C         -3.15823        0.65368       -0.30109
H         -4.13874        1.15641       -0.36162
N         -1.58228        2.92866       -0.90972
H         -1.61596        2.95441       -1.93491
H         -2.13932        3.74008       -0.62313
N          3.63806        0.84386        1.32261
H          3.89810        0.73029        2.30567
H          4.45081        0.48729        0.80784
