26
Coordinates from ORCA-job ./opt_b97-3c_parallel
N         -0.99575       -3.34613        0.34670
C         -1.29006       -2.43358       -0.27487
C         -1.13889       -1.33359       -0.17675
C         -2.32140       -0.62514       -0.07398
N         -2.87143        0.65125       -0.03377
C         -1.94209        1.68333       -0.02398
N         -0.56333        1.84960        0.03822
C          0.16060        0.66230       -0.01051
N          1.15724        1.61732        0.21829
C          2.47092        1.13864        0.23575
N          3.24615       -0.00081        0.02829
C          2.53448       -1.15615       -0.28393
N          1.23672       -1.24023       -0.26816
C          0.05346       -0.70353       -0.16750
N          3.06474       -2.09702       -0.52527
H          2.75833       -3.04707       -0.75399
H          4.08430       -2.14583       -0.60759
N          3.23443        1.90251        0.48775
H          4.23994        1.73202        0.58593
H          3.13175        2.87878        0.77845
N         -2.62792        2.55265       -0.04146
H         -3.56189        2.51231        0.37627
H         -2.65308        3.39415       -0.62333
N         -3.42727       -0.65678        0.05540
H         -3.38134       -1.55396        0.54230
H         -4.42252       -0.52322       -0.14089
