28
Coordinates from ORCA-job ./opt_b97-3c_parallel
N         -4.53954       -1.44347       -1.17556
C         -3.57571       -0.94035       -0.82427
C         -2.34630       -0.33876       -0.40890
C         -1.24786       -1.19198       -0.38326
C          0.09964       -0.73319       -0.09816
C          1.09244       -1.77795        0.06620
N          2.41942       -1.57341        0.25174
C          2.91226       -0.28812        0.09480
N          2.82765        1.06784       -0.17645
C          1.52535        1.51659       -0.32333
N          1.61833        2.56462       -0.67384
H          2.14681        3.34813       -1.06316
H          0.64280        2.87452       -0.67877
C          0.41431        0.67263        0.05007
C         -0.43357        1.39439        0.96662
N         -1.39683        1.59798        0.44849
C         -2.26390        1.03420        0.03525
N         -3.00339        1.85345        0.10526
H         -3.33874        2.31828        0.94821
H         -3.83264        1.50560       -0.37563
H         -0.61782        1.98950        1.87592
N          3.97443       -0.53294        0.28318
H          4.85856       -0.21502       -0.11584
H          4.23135       -1.25933        0.95449
N          1.33905       -2.85086        0.10274
H          1.82331       -3.69780       -0.19630
H          0.41376       -3.15215        0.40827
H         -1.39230       -2.25044       -0.58924
