21
Coordinates from ORCA-job ./opt_b97-3c_parallel
N          2.82429        1.78950       -0.00194
C          2.50379        0.73511        0.00183
N          1.27155        1.28039       -0.01856
C          0.10298        0.58947       -0.01121
N         -1.04245        1.39662       -0.05616
C         -2.32381        0.87462       -0.05326
N         -3.07595       -0.27200       -0.01443
C         -2.22856       -1.34957        0.04051
N         -0.92397       -1.79341        0.06964
C          0.13679       -0.88447        0.04054
N          1.19897       -1.63194        0.07190
C          2.49614       -1.62153       -0.00199
C          3.18936       -0.44621        0.02477
H          4.28001       -0.45347        0.02327
H          3.19791       -2.44411       -0.21882
H         -2.93695       -2.19652        0.07274
N         -3.11879        1.64506       -0.10263
H         -3.16387        2.48692       -0.68404
H         -4.01487        1.64152        0.39350
H          3.63843        1.81185       -0.61780
H          2.95625        2.56818        0.64618
