29
Coordinates from ORCA-job ./opt_b97-3c_parallel
N         -3.46152        0.27139        1.72698
C         -2.63236       -0.27952        1.16510
C         -1.59914       -1.00886        0.47693
C         -0.50812       -0.29150       -0.02277
C          0.75403       -0.74692       -0.36694
C          1.93173        0.00041       -0.28200
C          3.28576       -0.44021       -0.54010
N          4.29783       -0.96930       -0.47840
C          2.03204        1.24371        0.47657
C          1.05282        2.23278        0.54985
C         -0.17605        2.17641       -0.21087
C         -0.84050        1.01461       -0.57462
C         -2.05111        1.21965       -1.33947
N         -2.86338        1.28718       -2.14046
N         -0.49423        3.23440       -0.34181
H         -1.42379        3.35514       -0.74140
H         -0.02564        4.13552       -0.41530
H          1.26801        3.21031        1.01541
N          2.89672        1.77602        0.93855
H          3.61192        1.07047        1.10845
H          3.22956        2.63671        1.37002
C          0.98085       -2.08222       -0.89396
C          0.16925       -3.18909       -0.86043
C         -0.99675       -3.38481       -0.06404
C         -1.71136       -2.43226        0.60950
H         -2.57987       -2.77660        1.16537
H         -1.35851       -4.40720       -0.00551
H          0.54876       -4.08384       -1.34492
H          1.92502       -2.26784       -1.39088
