29
Coordinates from ORCA-job ./opt_b97-3c_parallel
N         -2.73905       -1.05432       -0.23923
C         -1.63565       -1.01408       -0.11724
C         -1.44872       -2.39880       -0.11124
C         -0.23512       -3.12127        0.06685
C          1.02643       -2.61808        0.16812
C          1.42746       -1.29133        0.10237
C          0.75268       -0.06829        0.01651
C          1.71650        1.02267       -0.08261
N          1.52969        2.34233       -0.04935
C          0.42183        3.06053        0.08379
C         -0.89409        2.72926        0.16708
C         -1.38635        1.35737        0.08377
C         -0.70511        0.12266        0.00275
N         -2.45306        1.66143        0.13837
H         -2.73485        0.86492        0.71070
H         -3.30268        2.19543       -0.04241
H         -1.56314        3.59797        0.26583
H          0.58410        4.14869        0.12408
N          2.72984        1.46868       -0.14754
H          3.32281        1.56833       -0.97045
H          2.88908        0.52120        0.19803
N          2.53188       -1.43731        0.17005
H          2.65663       -1.83135        1.10438
H          2.93904       -2.11356       -0.47879
H          1.74865       -3.44039        0.28132
H         -0.35796       -4.20005        0.09637
H         -2.26378       -3.13458       -0.20195
H         -2.93809       -0.24551       -0.82727
H         -3.49629       -1.71729       -0.40095
