26
Coordinates from ORCA-job ./opt_b97-3c_parallel
N          1.52425        2.94443        1.50950
C          0.78668        2.22151        1.01817
C         -0.17279        1.31929        0.44087
C         -1.46452        1.92644        0.28891
C         -2.62091        1.33263       -0.29053
C         -2.89539       -0.06815       -0.23266
C         -2.11141       -1.09183        0.24727
C         -0.66409       -1.14074        0.31093
C         -0.27513       -2.43540        0.61979
C          1.01979       -3.03364        0.66734
C          2.20334       -2.53279        0.05783
C          2.38886       -1.24393       -0.52101
C          1.57081       -0.12961       -0.38739
C          2.41123        0.85835       -1.02117
N          2.68145        1.61587       -1.83384
C          0.20511        0.00956        0.11637
H          3.38054       -1.18866       -0.97682
H          3.04190       -3.21936       -0.00481
H          1.06296       -4.06094        1.01597
H         -1.02679       -3.15926        0.92095
H         -2.63277       -2.03678        0.39387
N         -3.95043       -0.27890       -0.48342
H         -3.95435       -1.18328       -0.95135
H         -4.56380        0.33048       -1.02111
H         -3.43059        2.01503       -0.54525
H         -1.52809        2.99695        0.46584
