23
Coordinates from ORCA-job ./opt_b97-3c_parallel
N         -3.60674       -0.70922       -0.43586
C         -2.59498       -0.40433       -0.10446
N         -2.92461        0.92752       -0.27613
C         -1.86509        1.76939        0.00625
C         -0.55339        1.77391        0.38025
C          0.27264        0.68894        0.24968
N          1.58247        1.12301        0.00864
C          2.64186        0.23000        0.04680
C          3.15194       -1.00753        0.31159
C          1.97109       -1.67130        0.23190
N          0.60671       -1.83368        0.19262
C         -0.19294       -0.70198        0.26756
C         -1.50595       -1.10087        0.34945
H         -1.70962       -2.08451        0.77706
H          2.24393       -2.73906        0.23090
H          4.05207       -1.39726       -0.16268
N          3.31636        1.03885       -0.30113
H          4.18241        0.58723       -0.59934
H          3.43466        2.01778       -0.56655
H         -0.18374        2.65552        0.90277
H         -2.32520        2.76497       -0.09828
H         -3.72527       -1.64718       -0.82268
H         -4.54632       -0.30598       -0.43459
