24
Coordinates from ORCA-job ./opt_b97-3c_parallel
N          4.99426        0.29280       -0.11672
C          3.85636        0.20177       -0.09499
C          2.42101        0.13155       -0.07387
C          1.76577       -1.09106       -0.03312
C          0.41341       -1.41159       -0.02720
C         -0.70273       -0.59892       -0.00867
N         -1.89495       -1.26750       -0.00843
C         -3.10455       -0.59996        0.11396
N         -3.61028       -1.58888        0.04291
H         -3.45993       -2.51390       -0.37011
H         -4.57267       -1.63460        0.38901
C         -3.93662        0.46927        0.28191
C         -2.89410        1.33212        0.16093
N         -1.60379        1.79341        0.03897
C         -0.62010        0.86656       -0.00201
N          0.41651        1.71826       -0.06502
C          1.76130        1.40111       -0.11304
H          2.33806        2.33930       -0.15841
H         -3.32397        2.34759        0.16581
H         -4.84557        0.60585       -0.30489
H          0.15128       -2.47710       -0.02193
N          2.31043       -2.05919       -0.00544
H          3.25401       -2.00781       -0.39544
H          2.29799       -2.91642        0.54803
