24
Coordinates from ORCA-job ./opt_b97-3c_parallel
N          0.86400        4.06942        0.32811
C          0.53589        2.97635        0.25925
C          0.09692        1.60572        0.14371
C         -1.27631        1.67449        0.02334
C         -2.17604        0.55228       -0.01541
C         -3.45990        1.22521       -0.04865
N         -4.54560        1.58169       -0.01283
C         -1.84296       -0.79439        0.00351
N         -2.79519       -1.37385        0.01518
H         -3.76926       -1.08102        0.07954
H         -2.76668       -2.34991        0.30712
C         -0.54656       -1.46023       -0.05267
C         -0.60721       -2.91416       -0.12554
N         -0.69485       -4.05409       -0.17552
C          0.74206       -0.88384       -0.02854
N          1.74412       -1.81737       -0.17475
C          3.08563       -1.48353       -0.18971
N          4.07307       -0.52855       -0.08393
C          3.53423        0.71211        0.17915
N          2.25684        0.86889        0.30342
C          1.02279        0.48901        0.14183
H          4.11248        1.63751        0.32122
H          3.62609       -2.42558       -0.36657
H         -1.72383        2.67555        0.00213
