28
Coordinates from ORCA-job ./opt_b97-3c_parallel
N         -3.06406       -3.67767       -0.03118
C         -2.48680       -2.69134       -0.05809
C         -1.76217       -1.45453       -0.05028
C         -0.43379       -1.61920       -0.35959
C          0.66918       -0.77930       -0.28576
C          1.82706       -1.47137       -0.64089
C          3.21344       -1.12642       -0.57634
C          3.77068       -0.02681        0.01541
N          4.87335       -0.00304        0.07439
H          5.47375       -0.79022       -0.16280
H          5.11150        0.27202        1.02547
C          3.09287        1.10047        0.55926
C          1.74971        1.36610        0.50591
C          0.62601        0.62786        0.11064
C         -0.59574        1.45904        0.06378
N         -0.54411        2.57313        0.04866
H         -1.17954        3.34102       -0.16285
H          0.17519        2.58010       -0.67255
C         -2.01509        1.08011        0.04896
C         -3.10193        2.03840        0.05999
N         -3.97700        2.77402        0.04786
C         -2.49545       -0.25841        0.16697
H         -3.56831       -0.38511        0.29811
H          1.58694        2.35520        0.91861
H          3.73019        1.87566        0.98189
H          3.87957       -1.89514       -0.96523
H          1.72454       -2.47184       -1.04984
H         -0.20551       -2.65106       -0.61962
