23
Coordinates from ORCA-job ./opt_b97-3c_parallel
N          0.04914       -3.54263       -0.98446
C          0.23895       -2.89093       -0.06435
C          0.43339       -1.47350       -0.11334
C          1.78999       -1.43196        0.19410
N          2.59615       -0.32136        0.42882
C          2.16001        0.91705        0.02025
C          1.14586        1.17450       -0.83980
C         -0.12046        0.93882       -0.41361
C         -1.01374        2.08232       -0.32350
C         -2.26182        2.09485        0.27882
N         -3.04531        1.18104        0.87631
C         -2.69371       -0.12286        0.63639
C         -1.84971       -0.65130       -0.27917
C         -0.51935       -0.37968       -0.21788
H         -2.23488       -1.33506       -1.03271
H         -3.55630       -0.41002        1.25712
H         -2.88811        2.97890        0.47417
H         -0.59928        3.03395       -0.64361
H          1.34291        1.42183       -1.88175
N          3.00700        1.51220        0.40271
H          2.71754        2.36208        0.88668
H          4.02575        1.49244        0.44972
H          2.63690       -2.09585        0.43051
