28
Coordinates from ORCA-job ./opt_b97-3c_parallel
N         -5.57458       -1.24776        0.59477
C         -4.55541       -0.79444        0.34524
C         -3.27417       -0.22160        0.07869
C         -2.05779       -0.86897        0.45310
C         -0.70681       -0.39231        0.22770
C          0.21211       -1.44355        0.59123
C          1.50858       -1.60741       -0.00356
C          1.88518       -2.98963       -0.20133
N          2.15953       -4.08267       -0.38831
C          2.45395       -0.50485       -0.12778
N          3.47600       -0.87838       -0.38640
H          4.28157       -0.25857       -0.44937
H          3.77187       -1.77956       -0.75830
C          2.21729        0.82615        0.21993
C          3.41229        1.61975        0.49123
N          4.19217        2.17410        1.11828
C          0.92772        1.50170        0.05664
C         -0.32553        0.93647       -0.21116
C         -1.25514        1.88122       -0.81739
N         -2.60327        1.86829       -1.10224
C         -3.41571        0.91625       -0.65837
H         -4.16114        1.57421       -1.13039
H         -1.36351        2.88500       -1.25628
N          0.99366        2.61633        0.11575
H          1.74637        3.10383        0.59961
H          0.12818        2.90538        0.56708
H         -0.23485       -2.37907        0.91748
H         -2.20038       -1.83754        0.92458
