29
Coordinates from ORCA-job ./opt_b97-3c_parallel
N         -4.93555       -1.07982        0.20753
C         -3.85384       -0.71651        0.18915
C         -2.49823       -0.22022        0.18679
C         -2.48085        1.17443        0.50800
N         -1.44945        2.08817        0.51334
C         -0.12702        1.85949        0.21003
N         -0.15607        2.96259        0.31962
H          0.81659        3.16172        0.08283
H         -0.55705        3.86559        0.58373
C          0.55751        0.68447       -0.05406
C          1.93058        0.93198       -0.44552
N          2.57233        1.82572       -0.59591
H          3.41834        2.27667       -0.24045
H          2.50798        2.10355       -1.57801
C          2.84055        0.05026       -0.94544
C          3.15017       -0.95074       -0.08122
N          2.27119       -1.96656        0.20871
C          0.89825       -1.82078        0.00562
C          0.05915       -0.69035       -0.03973
C         -1.37158       -1.03310       -0.01169
N         -1.63122       -2.10872       -0.16066
H         -2.35501       -2.56535        0.39743
H         -1.72420       -2.50120       -1.09893
H          0.82032       -2.91514        0.11091
N          4.10736       -1.39762        0.24523
H          4.34138       -2.19150        0.84403
H          5.00578       -0.99416       -0.02474
H          2.89708       -0.13950       -2.02030
H         -3.35685        1.80251        0.73741
