25
Coordinates from ORCA-job ./opt_b97-3c_parallel
N         -1.63789       -2.45610       -0.98437
C         -2.26799       -1.74113       -0.35025
C         -1.65804       -0.47432       -0.06956
C         -2.85117        0.22246       -0.21667
N         -3.11775        1.56229       -0.00877
C         -2.06012        2.38529        0.23673
C         -0.71955        2.48939        0.30089
C          0.03781        1.35491        0.34803
N          1.31946        1.80890        0.32204
C          2.33149        0.90835        0.02839
N          2.77177       -0.37832       -0.24868
C          1.79786       -1.34916       -0.05414
N          2.37872       -2.22954       -0.40941
H          1.70102       -2.99607       -0.44808
H          3.28893       -2.69475       -0.37982
C          0.60745       -1.06196        0.56695
C          0.49343       -1.39872        1.62300
N          0.45263       -2.24896        2.38601
C         -0.30371       -0.06837        0.30317
N          3.15591        1.64087       -0.04915
H          3.03732        2.63964       -0.22973
H          4.16667        1.49722       -0.02862
H         -0.28367        3.49056        0.28785
H         -2.76966        3.22003        0.35138
H         -3.92817        0.34723       -0.41219
