20
Coordinates from ORCA-job ./opt_b97-3c_parallel
N          2.11538        3.14385       -0.31465
C          1.78511        2.13636        0.11419
C          1.31085        0.77275        0.06663
C          2.50272        0.06338        0.04872
C          2.67748       -1.35051       -0.00189
C          1.69650       -2.29767       -0.06527
C          0.33374       -2.16640       -0.08683
C         -0.52353       -1.08406       -0.03730
N         -1.81839       -1.49636       -0.08032
C         -2.87350       -0.62585       -0.03118
N         -3.35862        0.63734        0.05452
C         -2.22531        1.37936        0.11228
N         -0.85805        1.44015        0.11952
C         -0.07727        0.32708        0.04814
H         -2.44248        2.45525        0.19017
H         -3.75976       -1.27522       -0.08886
H         -0.15789       -3.13523       -0.14928
H          2.05699       -3.32105       -0.10823
H          3.71196       -1.68030        0.00133
H          3.46965        0.56864        0.07785
