26
Coordinates from ORCA-job ./opt_b97-3c_parallel
N          5.02154        0.09484       -1.33417
C          3.99341       -0.07727       -0.86588
C          2.69196       -0.25828       -0.29729
C          2.37066       -1.55925        0.05301
C          1.05340       -2.08777        0.36395
C         -0.17732       -1.43625        0.30003
N         -1.19518       -2.36697        0.23918
C         -2.45337       -1.91314        0.03788
N         -3.38688       -0.95335       -0.18204
C         -2.90222        0.33522       -0.19153
N         -3.94411        0.64211       -0.41281
H         -4.95075        0.47602       -0.41403
H         -3.82474        1.62628       -0.65697
C         -1.55767        0.80563        0.10794
C         -1.47484        2.23761        0.14114
N         -1.45721        3.37964        0.14523
C         -0.33585        0.01626        0.35406
C          0.75041        0.71716        0.77752
C          1.82978        0.84966       -0.02725
N          1.86537        1.94616       -0.16752
H          2.86758        1.90180       -0.34993
H          1.70298        2.83055        0.31219
H          0.85734        0.90996        1.84590
H         -2.66625       -2.99262        0.09340
H          1.04780       -3.17007        0.47556
H          3.15035       -2.31255       -0.02794
