30
Coordinates from ORCA-job ./opt_b97-3c_parallel
N         -5.77056       -0.93654       -0.59269
C         -4.67467       -0.72933       -0.34386
C         -3.29194       -0.50210       -0.05821
C         -2.71820        0.49768       -0.80844
C         -1.44291        1.09897       -0.48115
C         -1.51489        2.35345       -1.18210
N         -1.21116        3.21167       -1.87226
C         -0.34882        0.52634        0.17631
C         -0.29252       -0.89283        0.44216
N         -1.36105       -1.52121        1.07742
C         -2.68222       -1.14512        1.05930
H         -3.16901       -1.89474        1.70142
C          0.84790       -1.69014        0.28368
C          0.67443       -3.11695        0.51897
N          0.52858       -4.23593        0.32747
C          2.06075       -1.24987       -0.40872
C          2.66581        0.00125       -0.23019
C          4.03205        0.15969       -0.71125
N          5.11525        0.27493       -1.05813
C          2.07707        1.05658        0.57990
C          0.70944        1.31107        0.62454
C          0.19597        2.49758        1.28401
N         -0.04512        3.47781        1.81898
N          2.76949        1.84822        0.95469
H          3.78129        1.86080        0.83235
H          2.50104        2.78556        1.25000
N          2.63260       -2.06155       -0.92373
H          3.61744       -2.04235       -1.18579
H          2.31617       -3.02191       -1.05859
H         -3.36667        0.98846       -1.53744
