30
Coordinates from ORCA-job ./opt_b97-3c_parallel
N         -1.49448       -2.61143       -0.16290
C         -1.16629       -1.55386       -0.20162
C         -2.35810       -1.02659       -0.59655
C         -2.86295       -0.05004        0.20289
N         -2.32451        1.21804        0.34317
C         -0.99751        1.49094       -0.01010
C          0.06783        0.59157       -0.17689
C          1.33503        1.26147       -0.40051
C          2.53882        0.69939       -0.72878
C          3.01604       -0.29781        0.06673
N          2.46097       -1.51444        0.40225
C          1.13931       -1.66199        0.16162
C          0.06646       -0.80851       -0.08749
H          1.27356       -2.74165        0.34088
N          4.05666       -0.45076        0.40964
H          4.76686        0.28179        0.35421
H          4.54645       -1.25563        0.80623
H          2.88162        0.72371       -1.76746
N          1.66337        2.31858       -0.48216
H          2.26771        2.93817        0.06391
H          1.74670        2.64381       -1.44822
N         -1.33082        2.54763        0.05883
H         -1.97208        3.34445        0.08551
H         -0.40107        2.96705       -0.01157
N         -3.90168       -0.12814        0.57953
H         -4.62941        0.44340        1.01424
H         -4.29309       -1.07246        0.56190
H         -2.65357       -1.06077       -1.64858
H         -2.07124       -3.28440        0.34609
H         -1.09284       -3.13983       -0.94002
