28
Coordinates from ORCA-job ./opt_b97-3c_parallel
N          4.25287        2.83730        0.02753
C          3.51855        1.96414        0.06279
C          2.63860        0.83463        0.09549
C          1.31817        1.21948       -0.07129
C          0.09744        0.42177       -0.08883
C         -1.00066        1.27649       -0.20021
C         -2.40657        0.97810       -0.22129
C         -3.36328        2.04127       -0.27829
N         -4.16157        2.85712       -0.31024
C         -2.96903       -0.27418       -0.18792
N         -2.39955       -1.48547       -0.16285
C         -1.11151       -1.87323       -0.11259
N         -1.49551       -2.91674       -0.12933
H         -1.78631       -3.59089        0.58501
H         -1.51192       -3.44671       -1.00567
C          0.08011       -1.03883       -0.02110
C          1.17290       -1.87647        0.11946
N          2.52858       -1.66843        0.29627
C          3.19817       -0.46544        0.31267
N          4.18542       -0.93683        0.48693
H          4.68949       -1.34046        1.27945
H          4.89150       -0.39735       -0.02017
H          1.67871       -2.85106        0.21304
N         -3.97710       -0.74548       -0.18737
H         -4.72921       -1.18682       -0.72288
H         -4.45278       -0.00864        0.34176
H         -0.83795        2.35197       -0.24862
H          1.17628        2.29408       -0.18937
