24
Coordinates from ORCA-job ./opt_b97-3c_parallel
N          2.06174        2.12192        0.35289
C          1.59523        1.12309        0.22105
C          2.77699        0.28446        0.18981
C          2.76519       -1.06627       -0.02380
N          1.85387       -2.02403       -0.19186
C          0.50090       -1.78157       -0.14927
C         -0.26509       -0.57136        0.00513
C         -1.58981       -0.98661        0.14006
N         -2.77877       -0.39094        0.36513
C         -2.80163        0.97732        0.21651
C         -1.94087        1.84757       -0.35192
C         -0.64054        1.86009        0.02663
C          0.26645        0.72262        0.08777
H         -0.23279        2.85890        0.15162
H         -2.26233        2.45810       -1.19377
H         -3.70091        1.59269        0.37625
N         -2.29545       -1.84099        0.20782
H         -1.55793       -2.43570        0.58315
H         -3.14055       -2.41179        0.20046
H          0.86703       -2.81466       -0.25836
H          3.75710       -1.54248       -0.06729
H          3.77164        0.72910        0.29938
H          3.02891        2.44294        0.33301
H          1.54776        2.80939        0.90090
