32
Coordinates from ORCA-job ./opt_b97-3c_parallel
N         -4.28134       -2.78997        1.69615
C         -3.53994       -2.06843        1.21004
C         -2.62399       -1.12460        0.62091
C         -1.24672       -1.52115        0.64800
C         -0.08252       -0.78121        0.22293
C          1.04196       -1.68092        0.14609
C          2.29022       -1.38134       -0.49777
C          2.93528       -2.53225       -1.08926
N          3.46154       -3.42287       -1.57394
C          2.97315       -0.10616       -0.31231
N          4.02170       -0.13821       -0.69766
H          4.67559        0.63217       -0.56687
H          4.54527       -0.89095       -1.14169
C          2.51377        0.97006        0.45005
C          3.52222        1.91302        0.91466
N          4.28794        2.60393        1.40881
C          1.11146        1.36150        0.58004
N          0.90736        2.34774        1.06346
H          0.02901        2.58533        1.52136
H          1.62697        2.91472        1.50973
C         -0.01480        0.65569        0.14317
C         -1.13932        1.46585       -0.31174
C         -2.42182        1.06551       -0.65024
C         -2.95200        2.18903       -1.39125
N         -3.62494        2.81108       -2.07499
C         -3.13728       -0.08551       -0.14107
N         -4.22032        0.00733       -0.38247
H         -4.86416       -0.73179       -0.10519
H         -4.74932        0.65275       -0.96753
H         -0.85137        2.49574       -0.53094
H          0.80604       -2.74171        0.19139
H         -1.08188       -2.52772        1.02487
