21
Coordinates from ORCA-job ./opt_b97-3c_parallel
N          5.06389       -0.31021        0.75015
C          3.95308       -0.21198        0.50699
C          2.57025       -0.04870        0.18202
C          2.01879        1.27341        0.13398
N          0.71474        1.55643       -0.04157
C         -0.36162        0.74856       -0.06417
N         -1.59854        1.40677       -0.03274
C         -2.78085        0.68034       -0.01657
N         -3.43269       -0.53901        0.01651
C         -2.55394       -1.60352        0.08463
N         -1.26320       -1.50583        0.12456
C         -0.25451       -0.70266       -0.02805
C          0.77764       -1.49958       -0.45238
C          2.06681       -1.20025       -0.35602
H          2.76428       -1.93154       -0.76818
H          0.55455       -2.45013       -0.94335
H         -2.99512       -2.61348        0.12048
N         -3.65586        1.35592       -0.04767
H         -3.70784        2.36268       -0.20918
H         -4.62799        1.04431       -0.00915
H          2.62148        2.16882        0.35369
