25
Coordinates from ORCA-job ./opt_b97-3c_parallel
N          4.94447        0.98642       -0.37811
C          3.84676        0.69110       -0.27300
C          2.48868        0.26074       -0.13789
C          2.22928       -1.07883        0.28850
N          1.05245       -1.77619        0.13832
C         -0.20627       -1.28057       -0.16654
C         -0.91922       -2.44791       -0.23596
C         -2.25556       -2.45246       -0.41767
N         -3.41238       -1.75348       -0.24991
C         -3.19738       -0.49713        0.16036
C         -2.09056        0.32890        0.26910
C         -2.74127        1.50360        0.77182
N         -3.23602        2.43155        1.21932
C         -0.66379        0.08581        0.01357
C          0.14794        1.21420       -0.12273
C         -0.17263        2.61332       -0.25339
N         -0.57067        3.11453       -1.19939
C          1.58471        1.27850       -0.35262
H          2.03579        2.24183       -0.61495
H         -4.29295       -0.55330        0.26176
H         -2.86329       -3.29638       -0.77954
H         -0.42565       -3.40493       -0.42212
N          2.72813       -2.02056        0.58305
H          3.71701       -1.77442        0.52106
H          2.65532       -2.67473        1.36295
