28
Coordinates from ORCA-job ./opt_b97-3c_parallel
N          0.31826        3.78683        0.44413
C          0.47065        2.67122        0.25293
C          0.68449        1.26216        0.06470
C          2.06879        0.91837        0.23895
C          2.71094       -0.35860        0.20359
C          4.13148       -0.33611        0.42590
N          5.26015       -0.34952        0.60120
C          2.03511       -1.61036       -0.02705
C          0.70498       -1.89038       -0.28195
C         -0.43233       -1.01276       -0.38199
C         -1.57793       -1.64113       -0.74833
C         -2.56040       -1.69875        0.18172
N         -3.38517       -0.61111        0.35749
C         -2.97580        0.65088       -0.07678
C         -1.69238        1.11749       -0.37906
C         -2.51311        2.28951       -0.53008
N         -2.55996        3.12337       -1.31250
C         -0.40828        0.42591       -0.18743
H         -4.05500        0.50936        0.10649
N         -3.19134       -2.45708        0.67684
H         -4.14573       -2.81723        0.64640
H         -2.69742       -3.02873        1.36267
H         -1.69463       -2.08399       -1.73637
H          0.42794       -2.93476       -0.46263
N          2.57567       -2.57958       -0.04833
H          2.68715       -3.26342       -0.79567
H          3.48923       -2.50094        0.39882
H          2.73827        1.75401        0.44017
