24
Coordinates from ORCA-job ./opt_b97-3c_parallel
N         -4.21526       -2.40988       -0.41642
C         -3.28940       -1.74640       -0.32169
C         -2.12653       -0.91265       -0.16140
C         -0.88437       -1.60092       -0.26459
N          0.19997       -1.46972       -0.25117
C          0.79844       -0.60663        0.08972
C          2.09029       -1.09437        0.16345
C          2.79348       -1.71614        0.76577
N          2.99063       -2.69191        1.33151
C          3.07162       -0.36478       -0.46043
N          3.36441        0.94176       -0.58865
C          2.53752        1.81736        0.00242
N          1.45364        1.58996        0.67677
C          0.47591        0.77976        0.37616
C         -0.84304        1.25955        0.29766
C         -1.03338        2.67777        0.51732
N         -1.19667        3.74072        0.12846
C         -2.06506        0.46905        0.05403
N         -3.07467        0.93997        0.05074
H         -4.01559        0.55165        0.00446
H         -3.14784        1.91963       -0.22067
H          2.60710        2.91588        0.01513
H          3.98077       -0.22387       -1.06544
H         -0.78355       -2.68372       -0.43798
