27
Coordinates from ORCA-job ./opt_b97-3c_parallel
N          5.33693        0.75421        0.03316
C          4.25972        0.37342       -0.01916
C          2.88151       -0.06298       -0.07482
C          2.96088       -1.42194       -0.29212
C          1.88718       -2.35485       -0.30925
C          0.54397       -2.14821       -0.13189
C         -0.23674       -0.92889       -0.06129
C         -1.58351       -1.24635        0.05892
C         -2.67817       -0.42245        0.02107
C         -3.97730       -1.00187        0.18910
N         -5.02945       -1.41891        0.34042
C         -2.77648        0.92358       -0.20839
N         -1.86063        1.88456       -0.31167
C         -0.50203        1.63402       -0.19017
C          0.30692        0.42557       -0.09214
C          1.71648        0.80281        0.01278
N          2.03700        1.86272        0.15000
H          2.97947        2.20939       -0.03284
H          1.90821        1.92226        1.15959
H         -0.37739        2.72639       -0.25501
N         -3.41848        1.81618       -0.34888
H         -4.29563        1.49246        0.05981
H         -3.67846        2.33970       -1.18565
H         -1.84457       -2.29477        0.18870
H         -0.02157       -3.07570       -0.12187
H          2.19737       -3.38756       -0.43671
H          3.93300       -1.90052       -0.41739
