29
Coordinates from ORCA-job ./opt_b97-3c_parallel
N         -1.30779       -3.76858        0.03200
C         -1.31970       -2.62648        0.00057
C         -1.26642       -1.18764       -0.04159
C         -2.40791       -0.51175       -0.47898
C         -2.74411        0.89452       -0.25082
C         -1.96647        1.78632        0.47230
C         -0.55299        1.64371        0.67336
C          0.18824        0.80476       -0.09575
C         -0.02551       -0.49600        0.22670
N          1.01510       -1.30449        0.67774
C          2.27082       -0.73781        0.59624
N          3.11801        0.28229        0.18702
C          2.58211        1.36892       -0.51172
C          1.15745        1.55573       -0.70158
H          0.86545        2.41059       -1.30817
N          3.45306        1.95547       -0.86322
H          4.44000        1.80736       -1.08424
H          3.26556        2.91920       -1.14786
N          2.75592       -1.61178        1.07107
H          2.34291       -2.47966        1.42015
H          3.76171       -1.73915        1.18661
H         -0.06075        2.38730        1.30191
N         -2.37875        2.72789        0.87293
H         -3.38175        2.54572        0.91678
H         -2.26653        3.70750        1.13329
H         -3.75210        1.23598       -0.50839
N         -3.34177       -0.94733       -0.88965
H         -4.31887       -0.67653       -0.78056
H         -3.35387       -1.92653       -1.17508
