25
Coordinates from ORCA-job ./opt_b97-3c_parallel
N          4.11811        1.56362       -0.28735
C          3.09472        1.06261       -0.19903
C          1.83176        0.36837       -0.07993
C          0.58399        1.01444       -0.06084
N          0.67624        2.12517       -0.14060
H          1.44192        2.79153       -0.24300
H         -0.14978        2.59820       -0.50716
C         -0.73485        0.54430        0.05108
C         -1.73995        1.46694        0.37841
N         -3.04976        1.46227        0.68637
C         -3.76051        0.35174        0.31029
C         -3.43572       -0.53912       -0.65117
C         -2.40575       -1.33805       -0.28573
C         -1.05841       -0.87174       -0.06146
C         -0.17341       -1.91638       -0.01204
N          1.14186       -2.08981        0.14127
C          2.04115       -1.04311        0.13423
N          2.78138       -1.85890        0.25455
H          3.60659       -1.26100        0.19428
H          3.07247       -2.67920        0.78613
H         -0.30507       -3.00872       -0.05871
H         -2.55814       -2.41322       -0.33196
H         -4.17371       -0.86642       -1.38035
H         -4.77777        0.55474        0.67898
H         -1.95735        2.51341        0.64311
