28
Coordinates from ORCA-job ./opt_b97-3c_parallel
N         -3.71448        0.02654       -1.64904
C         -2.86072        0.50948       -1.06299
C         -1.74388        1.06322       -0.34222
C         -0.57335        0.28693        0.06057
C          0.72467        0.88000        0.34321
C          1.95584        0.12222        0.17905
C          3.29716        0.63963        0.23692
N          4.37990        1.00035        0.26341
C          2.09244       -1.13833       -0.36681
N          1.31163       -2.22734       -0.34848
C          0.04875       -2.21720        0.22845
C         -0.86770       -1.11164        0.39168
C         -2.13222       -1.49691        0.95999
N         -3.10789       -1.85481        1.43019
N         -0.00759       -3.32287        0.33188
H          0.26245       -4.29650        0.18097
H         -0.92268       -3.38294        0.78603
N          2.75482       -1.93656       -0.77780
H          3.07217       -2.69321       -1.38756
H          3.53685       -1.27647       -0.77609
C          0.93037        2.20014        0.72200
C          0.07574        3.26978        0.76718
C         -1.18414        3.43113        0.26348
C         -1.98079        2.42650       -0.36003
H         -2.91577        2.82052       -0.76244
H         -1.61165        4.42979        0.29097
H          0.50992        4.17949        1.17391
H          1.91596        2.48639        1.07217
