26
Coordinates from ORCA-job ./opt_b97-3c_parallel
N         -2.21281       -3.58393       -0.08573
C         -1.85704       -2.49975       -0.01874
C         -1.42543       -1.12953        0.02985
C         -0.05084       -0.70790        0.24194
C          0.88055       -1.72838        0.45713
C          2.32297       -1.66373        0.29442
C          3.07409       -0.58696       -0.14079
C          2.61270        0.76383       -0.06948
C          1.55896        1.12831        0.69602
C          0.35183        0.67007        0.28789
N         -0.37213        1.84136        0.16855
C         -1.71244        1.98503       -0.11533
C         -2.68938        1.04040       -0.31374
C         -2.56351       -0.38454       -0.23437
H         -3.51170       -0.89402       -0.41003
H         -3.69238        1.39718       -0.53338
N         -1.70897        3.08874       -0.11265
H         -1.11813        3.80476        0.30944
H         -2.55875        3.56701       -0.40993
H          1.71614        1.37993        1.74528
N          3.17210        1.65789       -0.39394
H          3.31184        2.41906       -1.05775
H          4.09976        1.28342       -0.19571
H          4.09154       -0.74409       -0.49018
H          2.83378       -2.61976        0.36180
H          0.53840       -2.74278        0.63177
