21
Coordinates from ORCA-job ./opt_b97-3c_parallel
N         -1.52190       -2.18944       -0.43266
C         -1.00765       -1.26551       -0.12040
N         -2.14706       -0.61581       -0.44563
C         -2.35162        0.68509       -0.18994
N         -1.87727        1.77489        0.32167
C         -0.64627        1.77615        0.72405
C          0.25624        0.76195        0.60343
C          1.16600        1.36379       -0.21990
N          2.41634        1.03115       -0.69802
C          2.81837       -0.19246       -0.20280
C          2.43271       -1.20560        0.62828
C          1.15123       -1.38060        0.96000
C          0.13757       -0.59769        0.46441
H          0.89262       -2.19364        1.63458
H          3.18842       -1.86650        1.04590
H          3.82250       -0.30251       -0.63962
H          1.46159        2.19796       -0.87433
H         -0.88525        2.83695        0.55004
H         -3.35237        1.01888       -0.50216
H         -0.72538       -1.99874       -1.03681
H         -2.27245       -2.53392       -1.02823
