29
Coordinates from ORCA-job ./opt_b97-3c_parallel
N          0.19901        3.83844       -0.55489
C          0.41087        2.72712       -0.39778
C          0.61276        1.31098       -0.20258
C          1.97920        1.13120       -0.32362
C          2.69206       -0.08265       -0.04563
C          4.09398        0.24441       -0.12596
N          5.18072        0.25886       -0.47309
C          2.16060       -1.31736        0.25993
N          2.82673       -2.17379        0.48732
H          3.82125       -1.94934        0.44929
H          2.76139       -3.08106        0.94770
C          0.78764       -1.76045        0.20990
C         -0.38132       -1.02355        0.04713
C         -1.46346       -1.89147       -0.09304
C         -2.81969       -1.67825       -0.22615
N         -3.50780       -2.51702       -0.43807
H         -3.02363       -3.33834       -0.80058
H         -4.46224       -2.58301       -0.79166
C         -3.55007       -0.47189        0.01872
C         -2.96747        0.72864        0.32162
N         -1.64664        1.10382        0.20581
C         -0.47711        0.36636        0.00989
N         -3.34818        1.73708        0.56128
H         -3.04934        2.66413        0.86375
H         -4.29367        1.61703        0.92378
H         -4.63961       -0.51114       -0.00362
H         -1.21814       -2.95094       -0.17314
H          0.68939       -2.83851        0.35705
H          2.60106        1.99944       -0.56185
