27
Coordinates from ORCA-job ./opt_b97-3c_parallel
N         -0.63317       -2.97525       -2.00064
C         -0.89532       -2.08561       -1.33890
C         -1.14329       -0.95729       -0.49598
C         -2.48956       -0.58412       -0.11029
N         -2.84715        0.65317        0.42683
C         -1.93842        1.69501        0.37583
N         -0.67257        2.12759        0.01606
C          0.23690        1.11770       -0.26991
N          1.44487        1.68637       -0.67617
C          2.60964        0.94676       -0.50059
N          3.26654       -0.15411        0.03931
C          2.44499       -1.06768        0.69073
N          3.14973       -1.81629        1.11341
H          4.15530       -1.81229        1.31268
H          2.84985       -2.72633        1.48015
C          1.08028       -1.17601        0.62390
C          0.01162       -0.27391        0.06673
H          0.62551       -2.14848        0.82131
N          3.37824        1.58034       -0.98777
H          4.37228        1.34121       -1.04393
H          3.30106        2.41605       -1.57468
N         -2.60928        2.48540        0.76644
H         -2.43443        3.35707        1.27241
H         -3.63076        2.41744        0.74226
N         -3.56970       -0.79613       -0.16045
H         -3.53298       -1.73668       -0.55683
H         -4.53887       -0.49609       -0.27854
