27
Coordinates from ORCA-job ./opt_b97-3c_parallel
N         -1.86534       -3.41285        0.41815
C         -1.55306       -2.31646        0.37007
C         -1.18993       -0.93258        0.26741
C          0.20195       -0.48787        0.36425
C          1.15918       -1.42462        0.60906
C          2.13119       -1.66535       -0.30003
N          3.17175       -0.81304       -0.58720
C          3.10580        0.51538       -0.17859
N          4.17304        0.68762       -0.41161
H          4.93481        0.28201        0.13751
H          4.63703        1.21838       -1.15119
C          2.00062        1.26122        0.24300
C          0.59992        0.84764        0.35429
C         -0.34912        1.78607        0.64324
C         -1.50161        1.98743       -0.05079
N         -2.53755        1.11916       -0.34859
C         -2.31985       -0.19025       -0.08865
N         -3.40683       -0.25737       -0.32334
H         -4.35554       -0.10126        0.02801
H         -3.46513       -1.16069       -0.80130
N         -1.92641        2.97354       -0.32749
H         -1.41016        3.76809       -0.71203
H         -2.85709        3.35182       -0.13273
H         -0.20132        2.37273        1.54998
H          2.18535        2.31895        0.41629
H          2.39015       -2.66582       -0.68302
H          1.17470       -1.95276        1.56139
