29
Coordinates from ORCA-job ./opt_b97-3c_parallel
N         -5.81864       -0.77532       -0.18042
C         -4.68267       -0.65131       -0.14588
C         -3.25648       -0.47356       -0.06812
C         -2.64694       -1.66889       -0.34107
C         -1.26030       -1.98688       -0.22969
C         -0.13598       -1.18537       -0.05570
C          1.01484       -2.06454        0.04632
C          2.34077       -1.79153        0.24306
C          3.00788       -0.58470        0.17567
C          4.36987       -1.04199        0.40844
N          5.44823       -1.36821        0.60487
C          2.50454        0.67657       -0.11685
N          3.40335        1.33531       -0.22624
H          3.27683        2.24886       -0.65916
H          4.40718        1.20439       -0.11176
C          1.09069        1.05446       -0.17151
C          1.04934        2.46941       -0.50152
N          0.92334        3.40912       -1.14062
C         -0.06927        0.27361       -0.00098
C         -1.24437        1.10079        0.27653
C         -2.64519        0.76113        0.32441
N         -3.25509        1.64748        0.59421
H         -3.05815        2.61463        0.84449
H         -4.26280        1.52261        0.67775
H         -1.06039        2.14029        0.53736
H          2.89154       -2.72124        0.41214
H          0.80797       -3.13060        0.05447
H         -1.12516       -3.05578       -0.36448
H         -3.26954       -2.53095       -0.57554
