28
Coordinates from ORCA-job ./opt_b97-3c_parallel
N         -4.40944       -1.22983       -1.09771
C         -3.85966       -1.23664       -0.09307
C         -2.67303       -0.46048        0.14150
C         -1.56575       -1.27656        0.55751
C         -0.23240       -0.92098        0.47255
C          0.57253       -2.10757        0.58134
N          1.89320       -2.34169        0.27093
C          2.80416       -1.44314       -0.23861
C          2.69738       -0.08099       -0.39083
C          4.03127       -0.17492       -0.92144
N          4.34524        0.44457       -1.83069
C          1.61955        0.76764        0.05628
N          2.07279        1.77471       -0.06989
H          2.07824        2.06728       -1.04914
H          3.05088        1.81488        0.22546
C          0.31305        0.41666        0.37593
C         -0.48043        1.54873        0.80695
N         -1.77550        1.81779        0.39059
C         -2.68493        0.89742       -0.10335
N         -3.37819        1.69230       -0.44226
H         -3.86677        1.01889       -1.03895
H         -3.85092        2.58232       -0.60769
N         -0.55046        2.63022        1.04015
H          0.45296        2.62852        0.83642
H         -0.64706        3.20287        1.88144
H          3.17653       -2.48090       -0.24768
H          0.90263       -3.15363        0.68756
H         -1.79278       -2.33238        0.71636
