28
Coordinates from ORCA-job ./opt_b97-3c_parallel
N          0.12993       -1.45618       -3.12739
C         -0.29550       -1.37365       -2.07171
C         -0.76695       -1.21389       -0.72727
C         -2.11722       -1.07477       -0.65296
C         -2.69664       -0.23557        0.25325
C         -3.94908       -0.73275        0.72667
N         -4.96555       -1.10061        1.09412
C         -2.26428        1.10398        0.56782
N         -1.07505        1.60786        0.16015
C          0.02717        0.95107       -0.26957
N          0.96136        1.84803       -0.79181
C          2.28816        1.44718       -0.86578
N          2.84996        0.51340       -0.15507
C          2.34159       -0.20476        0.80919
N          3.02163        0.22064        1.57700
H          2.96475       -0.64652        2.11330
H          3.88913        0.66873        1.87547
C          1.27362       -0.98690        0.41850
C          1.56214       -2.04778        0.60887
N          1.13721       -2.87130        1.27779
C          0.19253       -0.41697       -0.15764
N          2.93080        2.22184       -1.32064
H          3.93774        2.05378       -1.34983
H          2.79107        3.10475       -1.81506
N         -2.40829        2.08262        1.05302
H         -3.39914        1.87027        0.93110
H         -2.36390        2.78447        1.79234
H         -2.74961       -1.61182       -1.36257
