28
Coordinates from ORCA-job ./opt_b97-3c_parallel
N         -4.75313       -0.15886        1.66803
C         -3.71940       -0.28837        1.19997
C         -2.42712       -0.49772        0.62663
C         -2.03568        0.40546       -0.30709
N         -2.57526        0.37599       -1.53919
H         -2.48820        1.19464       -2.14217
H         -3.53227        0.04056       -1.65587
C         -0.87854        1.03060        0.03063
C         -1.14897        2.43378        0.14786
N         -1.33486        3.55852        0.21650
C          0.41947        0.39235        0.06583
C          0.52223       -1.06689       -0.05826
N          1.62895       -1.65403       -0.55064
C          2.83182       -1.08760       -0.65720
C          3.49639       -0.11175        0.01102
C          2.86120        0.98213        0.40562
C          1.56622        1.28957        0.08215
H          1.34606        2.34698       -0.02558
N          3.42625        1.94018        1.15780
H          3.06405        2.89350        1.15199
H          4.43928        1.99257        1.26362
H          4.53235       -0.27224        0.30805
N          3.20626       -2.01762       -1.11727
H          4.14529       -1.69531       -1.34795
H          3.16302       -2.99492       -1.40351
N         -0.46924       -1.98767        0.29708
C         -1.70917       -1.71164        0.86487
H         -2.31037       -2.46324        1.39924
