28
Coordinates from ORCA-job ./opt_b97-3c_parallel
N          5.01147        0.49757        1.48894
C          3.95338        0.50598        1.05958
C          2.62977        0.53440        0.48250
C          2.12145       -0.54177       -0.24541
N          2.82896       -1.36966       -0.48770
H          2.70705       -2.26412       -0.96038
H          3.83321       -1.25707       -0.35040
C          0.71326       -0.79479       -0.53598
C          0.37070       -1.98372       -1.29421
N         -0.21212       -2.20547       -2.25309
C         -0.35166        0.02891       -0.16395
C         -0.30874        1.44614       -0.44413
C         -1.38365        2.12387       -0.92620
C         -2.55460        2.16462       -0.25559
N         -3.37889        1.25164        0.36291
C         -2.88166        0.00252        0.45128
C         -1.64975       -0.59283        0.16294
C         -1.85658       -1.93522        0.63750
N         -2.05827       -2.98128        1.04929
N         -3.94033       -0.04872        0.79697
H         -3.81462       -0.93203        1.29351
H         -4.93591       -0.00162        0.57735
H         -3.07999        3.13195       -0.28924
H         -1.25764        2.76003       -1.80086
C          0.84924        2.25286       -0.17937
C          2.02430        1.83583        0.52406
H          2.63852        2.63896        0.92535
H          0.72636        3.32761       -0.28647
