28
Coordinates from ORCA-job ./opt_b97-3c_parallel
N         -1.11264       -3.72148        0.15520
C         -1.14879       -2.58236        0.10724
C         -1.14419       -1.14623        0.06160
C          0.13787       -0.55411       -0.03496
N          1.22223       -1.36196       -0.27419
C          2.52626       -0.89722       -0.31255
C          3.48712        0.06487       -0.21602
C          2.66136        1.12961        0.00411
N          1.39650        1.67641        0.17893
C          0.27377        0.89869        0.15581
C         -0.68105        1.81933        0.48761
C         -1.90290        1.82780       -0.10865
N         -2.82787        0.80351       -0.17623
C         -2.47744       -0.52775        0.06545
N         -3.54213       -0.85156        0.08602
H         -3.72071       -1.66383        0.68679
H         -4.42820       -0.74146       -0.41898
N         -2.57385        2.66662       -0.39713
H         -2.51705        3.29468       -1.20589
H         -3.37615        3.03492        0.12599
H         -0.56390        2.40286        1.40534
N          3.17708        2.10901        0.13026
H          3.22536        2.98881       -0.39547
H          3.96166        2.19428        0.78652
H          4.39072       -0.09472        0.37822
N          2.87005       -1.92277       -0.57942
H          2.89824       -2.81576       -0.07388
H          3.46318       -2.10450       -1.39803
