32
Coordinates from ORCA-job ./opt_b97-3c_parallel
N         -1.85255       -2.74374        1.53669
C         -1.84458       -1.71043        1.04786
C         -1.87189       -0.40924        0.42382
C         -3.02802        0.42725        0.62172
N         -3.97133        0.16217        1.13909
H         -4.92972        0.50159        1.08170
H         -4.02716       -0.82989        1.36456
C         -3.32026        1.61060       -0.14280
C         -2.41053        2.31296       -0.99052
C         -1.03953        2.24420       -1.02027
C         -0.15309        1.26114       -0.41764
C          1.20379        1.58938       -0.27808
C          1.60455        2.95073       -0.55530
N          1.94625        4.02556       -0.74822
C          2.11686        0.75444        0.51015
N          2.97842        1.24791        1.01870
H          3.87714        0.79373        1.17345
H          3.16551        2.24732        0.95973
C          2.16379       -0.70998        0.47484
C          3.23764       -1.42285        1.13953
N          4.10528       -1.98001        1.63357
C          1.36543       -1.41745       -0.51063
N          1.69806       -2.40709       -0.89662
H          1.05907       -3.17256       -1.10850
H          2.57956       -2.83266       -0.61341
C          0.08006       -1.03830       -0.86595
C         -0.77043       -1.71938       -1.82105
N         -1.36771       -2.54187       -2.34453
C         -0.61234       -0.05157       -0.05565
H         -0.60090        3.07777       -1.55709
H         -2.87083        3.14708       -1.51133
H         -4.32620        2.03265       -0.11709
