33
Coordinates from ORCA-job ./opt_b97-3c_parallel
N         -3.98865       -2.53153        0.80288
C         -3.25813       -1.71956        0.46472
C         -2.33440       -0.68410        0.08173
C         -2.77071        0.66674       -0.12967
N         -3.82510        0.99306       -0.02171
H         -4.18898        1.93147        0.13080
H         -4.28272        0.38752        0.65782
C         -1.96798        1.72192       -0.68038
C         -0.51673        1.76660       -0.58960
N         -0.39248        2.83703       -0.86348
H          0.61548        2.76932       -0.99642
H         -0.76975        3.22192       -1.72768
C          0.40552        0.79740       -0.17450
C          1.66966        1.34485        0.32470
N          1.91940        2.38702        0.62425
H          2.52240        3.06185        1.09016
H          0.95950        2.66145        0.82892
C          2.83367        0.71028        0.74939
C          3.28544       -0.59293        0.36040
N          4.31910       -0.87707        0.63783
H          4.67151       -0.43214        1.48285
H          4.26822       -1.87492        0.83400
C          2.61021       -1.52289       -0.49373
C          1.17420       -1.55115       -0.68663
N          1.08669       -2.56514       -1.13531
H          1.71674       -3.08760       -1.74109
H          0.35964       -2.18363       -1.73777
C          0.18662       -0.62972       -0.33610
C         -1.12204       -1.25736       -0.23975
H         -1.11428       -2.34601       -0.25230
H          3.23204       -2.37185       -0.81100
H          3.61699        1.24374        1.31003
H         -2.53583        2.61846       -0.97885
