27
Coordinates from ORCA-job ./opt_b97-3c_parallel
N         -5.03103       -0.23475       -0.29887
C         -3.89345       -0.18841       -0.20712
C         -2.45581       -0.11829       -0.05047
C         -2.01188        1.23479        0.13847
C         -0.68390        1.79226        0.12190
C         -0.74915        3.22905        0.17415
N         -0.77360        4.36944        0.23879
C          0.53779        1.10637        0.08388
C          1.66988        1.92400       -0.17339
C          3.04595        1.54196       -0.45674
N          3.64452        0.28587       -0.42565
C          2.96689       -0.77235        0.12337
N          1.84891       -0.57301        0.72302
C          0.65766       -0.26531        0.31140
C         -0.23595       -1.34262        0.28099
C          0.28038       -2.69425        0.47655
N          1.01418       -3.49674        0.12083
C         -1.66051       -1.26633       -0.03288
N         -2.21967       -2.22330       -0.18372
H         -1.98193       -3.05699       -0.72013
H         -3.21126       -2.30766        0.04180
N          3.69562       -1.59657        0.06359
H          3.35148       -2.54336        0.22791
H          4.71286       -1.65008        0.09937
H          3.76790        2.30604       -0.78344
H          1.58307        2.99236       -0.32749
H         -2.81572        1.97020        0.17364
