25
Coordinates from ORCA-job ./opt_b97-3c_parallel
N          4.65622        1.29138       -0.09381
C          3.57302        1.14080        0.24050
C          2.20962        0.67317        0.11727
C          1.50719        1.85659        0.00602
C          0.09337        2.04364       -0.05026
C         -0.93400        1.12495       -0.13471
C         -2.23086        1.80558       -0.12944
C         -3.48958        1.26678        0.11713
N         -3.85595       -0.01931        0.49191
C         -3.00702       -1.06048        0.22066
C         -2.01427       -0.95737       -0.68778
C         -0.87932       -0.31330       -0.30455
C          0.32764       -1.10852       -0.11858
C          0.13760       -2.54103       -0.19185
N         -0.07161       -3.58220        0.23298
C          1.69340       -0.67881        0.13477
N          2.54318       -1.38116        0.28583
H          3.55077       -1.26912        0.18481
H          2.38341       -2.32143        0.64417
H         -2.17191       -1.24795       -1.72382
H         -3.51353       -1.96414        0.59125
H         -4.29975        2.00243        0.23200
H         -2.22185        2.88935       -0.19606
H         -0.15486        3.10086       -0.02059
H          2.01827        2.82104        0.02245
