24
Coordinates from ORCA-job ./opt_b97-3c_parallel
N          5.20259        0.23039       -0.35319
C          4.07000        0.15889       -0.22160
C          2.64750        0.10990       -0.06851
C          2.19065       -1.18444       -0.08412
C          0.84021       -1.62396        0.07211
C         -0.31511       -0.87042        0.17326
N         -1.33876       -1.79675        0.36820
C         -2.64619       -1.47290        0.13497
C         -3.31498       -0.49919       -0.51387
C         -3.03769        0.69561        0.06624
N         -3.90286        1.37855        0.15278
H         -3.55835        2.21685       -0.31145
H         -4.81943        1.18045       -0.24395
C         -1.72444        1.22110        0.34424
C         -0.51911        0.51823        0.21950
C          0.55275        1.49531        0.23967
C          1.90848        1.31841        0.11303
H          2.52332        2.21394        0.12896
H          0.27495        2.54082        0.33437
H         -1.72517        2.28046        0.59188
H         -4.25734       -0.71209       -1.01820
H         -3.07542       -2.44325        0.42509
H          0.75333       -2.70944        0.07128
H          2.91154       -1.99114       -0.19968
