34
Coordinates from ORCA-job ./opt_b97-3c_parallel
N         -4.00684       -2.81492        2.06569
C         -3.32844       -2.10222        1.48375
C         -2.49784       -1.19344        0.72561
C         -1.12158       -1.60154        0.70783
C         -0.00856       -0.88263        0.15202
C          1.16291       -1.71871        0.13928
C          2.31302       -1.32016       -0.62242
C          2.96448       -2.38025       -1.35318
N          3.49523       -3.22861       -1.90514
C          2.94612       -0.02976       -0.37404
N          3.95679        0.05947       -0.83828
H          4.50382       -0.64919       -1.32505
H          4.60182        0.81068       -0.59763
C          2.51435        0.87647        0.59508
C          3.49046        1.77936        1.18060
N          4.27533        2.47419        1.63692
C          1.10947        1.15814        0.87383
N          0.84509        1.97698        1.58433
H          1.47808        2.59681        2.08742
H         -0.07971        2.40238        1.62222
C          0.04150        0.55021        0.20287
C         -1.06743        1.34346       -0.33935
N         -0.79476        2.39240       -0.60886
H         -1.43994        3.06338       -1.02337
H          0.13721        2.79691       -0.68091
C         -2.29010        0.85094       -0.80797
C         -3.07464        1.65318       -1.73869
N         -3.62301        2.25168       -2.54390
C         -3.01242       -0.25014       -0.16850
N         -4.10848       -0.36076       -0.35882
H         -4.66495        0.23119       -0.97364
H         -4.73706       -1.07771        0.00024
H          0.97822       -2.78945        0.18319
H         -0.91724       -2.58025        1.13619
