28
Coordinates from ORCA-job ./opt_b97-3c_parallel
N         -5.41958       -0.64894        1.06466
C         -4.35484       -0.42764        0.71536
C         -3.01901       -0.11919        0.30252
C         -2.46847       -1.09205       -0.49521
C         -1.04754       -1.22255       -0.73235
C         -1.01231       -2.49905       -1.39986
N         -0.57529       -2.90475       -2.37487
C         -0.04576       -0.44801       -0.14807
C         -0.14740        0.98933       -0.35768
N          0.89016        1.82043       -0.76616
C          2.18785        1.54276       -0.67235
C          2.92669        0.59571       -0.02694
C          4.26742        1.12648       -0.05011
N          5.32953        1.54936       -0.03389
C          2.41633       -0.62365        0.55888
C          1.12001       -1.08095        0.31132
C          0.95798       -2.42366        0.82941
N          0.75994       -3.38418        1.41725
N          3.28232       -1.12447        1.05480
H          3.10907       -1.99113        1.56209
H          4.14348       -0.73259        1.43333
H          2.24302        2.51716       -1.18161
C         -1.38424        1.74730       -0.20339
C         -1.40770        3.17974       -0.33850
N         -1.45342        4.31904       -0.42014
C         -2.52080        1.20657        0.48711
H         -3.22741        1.91502        0.91298
H         -3.13874       -1.89655       -0.81066
