24
Coordinates from ORCA-job ./opt_b97-3c_parallel
N         -2.06102       -2.92762       -1.09621
C         -1.37757       -2.73280       -0.19873
C         -0.53434       -1.56933       -0.10530
C          0.56832       -2.49420        0.01082
N          1.64608       -2.67731        0.14805
C          2.18684       -1.73189       -0.00091
C          2.25777       -0.31834       -0.16660
C          3.55818        0.27431       -0.30883
N          4.57794        0.77887       -0.41845
C          1.00283        0.43711       -0.12345
N          1.27886        1.79011       -0.21953
C          0.26237        2.67410       -0.17967
N         -1.03535        3.03672       -0.06600
C         -1.90396        1.98495        0.09895
N         -2.67239        2.78161        0.18125
H         -2.97142        3.74562        0.33194
H         -3.51278        2.21287        0.29990
C         -1.64711        0.54960        0.09955
C         -2.88697       -0.14026        0.31709
N         -3.90315       -0.62512        0.50909
C         -0.35345       -0.17860       -0.03130
H          1.09539        3.38291       -0.31449
H          3.13074       -2.30204        0.00005
H          0.82169       -3.57345        0.02890
