28
Coordinates from ORCA-job ./opt_b97-3c_parallel
N         -0.32437       -4.19170        0.05097
C          0.18875       -3.17224        0.00382
C          0.77738       -1.85422       -0.04686
C          2.10837       -2.09464       -0.31077
C          3.16270       -1.14358       -0.27809
C          3.03899        0.19304        0.04794
N          4.09608        0.51254        0.17090
H          5.01496        0.08116        0.07834
H          4.26166        1.45203        0.53130
C          1.86655        1.04745        0.12538
C          2.16713        2.40653        0.53045
N          2.37805        3.47483        0.87712
C          0.51628        0.69220       -0.08781
C          0.02023       -0.61117        0.01608
N         -1.31235       -0.96840        0.24436
C         -2.48032       -0.24149        0.27196
C         -2.68221        1.04665       -0.14331
C         -4.01851        1.55890       -0.22470
N         -5.04139        1.05572       -0.31503
C         -1.66531        1.96590       -0.53221
C         -0.30796        1.78025       -0.41844
H          0.17372        2.70380       -0.72117
H         -1.99796        2.94781       -0.86292
N         -2.94525       -1.18831        0.60595
H         -3.88552       -0.87732        0.35355
H         -3.07144       -2.02846        1.17075
H          4.14158       -1.61221       -0.42821
H          2.46728       -3.11164       -0.47590
