26
Coordinates from ORCA-job ./opt_b97-3c_parallel
N         -3.39857       -2.66938        0.69395
C         -2.77216       -1.75076        0.43467
C         -1.95962       -0.59928        0.14997
C         -2.81481        0.55326        0.22555
N         -2.58856        1.87964       -0.04940
C         -1.35896        2.34126       -0.23634
C         -0.08925        1.82590       -0.16598
C          0.33190        0.43046       -0.06854
C         -0.56397       -0.65786       -0.07678
C         -0.11054       -1.96308       -0.30665
C          1.15907       -2.46338       -0.39523
N          2.36617       -1.93881       -0.19308
C          2.69765       -0.66869        0.04046
C          1.73730        0.42804        0.01100
C          2.81220        1.38256        0.14101
N          3.01255        2.03497        1.06032
N          3.64006       -1.26755        0.08956
H          4.09879       -0.68351        0.79059
H          4.36693       -1.90763       -0.23862
H          1.24443       -3.54384       -0.59673
H         -0.82178       -2.76302       -0.47954
H          0.68647        2.57894       -0.25758
N         -1.75535        3.36646       -0.37307
H         -1.13228        4.07930       -0.75560
H         -2.66023        3.83586       -0.29177
H         -3.90184        0.59337        0.40434
