29
Coordinates from ORCA-job ./opt_b97-3c_parallel
N          5.78988        0.51039       -0.18405
C          4.68010        0.29574       -0.01906
C          3.27670        0.04394        0.14915
C          2.72809       -1.12369       -0.35198
C          1.39323       -1.63092       -0.11620
C          0.26028       -0.90854        0.22250
N         -0.78401       -1.79060        0.45147
C         -2.12556       -1.50541        0.56127
C         -2.78541       -0.46991       -0.17978
C         -4.10644       -0.85840       -0.61772
N         -5.14331       -1.21214       -0.93936
C         -2.25523        0.81784       -0.28085
N         -2.97199        1.53837       -0.74485
H         -3.85468        1.49660       -1.25530
H         -2.59573        2.47069       -0.92344
C         -1.01230        1.27161        0.34634
C         -0.95168        2.70743        0.55633
N         -0.87725        3.80208        0.23076
C          0.15540        0.50816        0.49853
N          1.22776        1.25107        0.97627
C          2.57644        0.98097        0.96499
H          2.97266        1.88671        1.44967
N         -2.24268       -2.55399        0.90003
H         -3.26191       -2.56481        0.83384
H         -1.99859       -3.35961        1.47637
H          1.22183       -2.68656       -0.34986
N          3.26388       -1.93562       -0.88874
H          4.17497       -1.52897       -1.10209
H          3.19934       -2.77686       -1.46103
