26
Coordinates from ORCA-job ./opt_b97-3c_parallel
N          3.89779        1.32195        1.47996
C          2.85468        1.41735        1.02284
C          1.53480        1.47723        0.45699
C          0.96321        2.79189        0.45775
C         -0.12993        3.18695       -0.36720
C         -1.20506        2.34946       -0.78517
C         -1.44290        1.05620       -0.34477
C         -2.82482        0.91158       -0.73013
N         -3.19222        0.19225       -1.54096
C         -0.48734        0.06331        0.14280
C          0.94599        0.28622        0.02543
C          1.80485       -0.73145       -0.37291
C          1.53359       -2.04399       -0.65820
N          0.58559       -2.89006       -0.25949
C         -0.46086       -2.45015        0.52688
C         -1.04100       -1.13665        0.60687
C         -2.26889       -1.13362        1.34993
N         -3.22788       -1.16341        1.96840
H         -1.02181       -3.32569        0.89116
N          2.10772       -2.88527       -1.08798
H          2.95109       -2.52239       -1.53209
H          2.02894       -3.85316       -1.40146
H          2.82757       -0.44930       -0.60936
H         -1.95651        2.93764       -1.31806
H         -0.22856        4.24690       -0.58280
H          1.59184        3.60167        0.82091
