27
Coordinates from ORCA-job ./opt_b97-3c_parallel
N          1.96316        3.82495        0.92649
C          1.90421        2.71457        0.65942
C          1.79250        1.31742        0.35079
C          3.08764        0.65920        0.21731
C          3.32765       -0.66577       -0.29863
C          2.34546       -1.69571       -0.17883
C          1.29551       -1.59067        0.66966
C          0.39183       -0.67250        0.25009
N         -0.68583       -1.48202        0.26104
C         -1.99732       -1.12914        0.00821
C         -2.53472        0.08411       -0.35644
C         -3.93913        0.18592       -0.62823
N         -4.83840       -0.51206       -0.51795
C         -1.86469        1.34329       -0.47566
C         -0.53737        1.58984       -0.22539
C          0.52668        0.75525        0.10281
H         -0.31715        2.64204       -0.37041
H         -2.47103        2.19961       -0.76258
N         -2.24415       -2.18957        0.20712
H         -3.20768       -2.11500       -0.12482
H         -2.27120       -2.83643        0.99476
H          1.42861       -1.79525        1.73203
N          2.53012       -2.72367       -0.53456
H          2.24296       -3.59510       -0.97874
H          3.54737       -2.69986       -0.60431
H          4.31982       -0.91013       -0.67038
H          3.96521        1.29630        0.29648
