30
Coordinates from ORCA-job ./opt_b97-3c_parallel
N          5.44991        0.98056       -0.73982
C          4.33117        0.84238       -0.55678
C          2.94167        0.61427       -0.30586
C          2.53587       -0.51836        0.45492
N          1.27360       -1.06021        0.50531
C          0.02156       -0.57003        0.12487
C         -0.23128        0.84859       -0.09264
C         -1.53673        1.45924        0.16399
C         -1.64447        2.88139        0.43892
N         -1.69372        3.99840        0.67405
C         -2.78392        0.83263        0.19971
C         -3.15275       -0.46749       -0.12414
C         -2.32289       -1.57116       -0.25917
C         -0.90529       -1.61900        0.06515
C         -0.49651       -3.01100        0.16801
N          0.21212       -3.89408        0.00546
N         -3.00661       -2.42271       -0.49331
H         -4.01866       -2.46352       -0.60951
H         -2.64514       -3.29380       -0.88057
H         -4.23748       -0.66709       -0.24669
N         -3.77128        1.31886        0.39493
H         -4.74178        1.00793        0.41299
H         -3.78370        2.28896        0.70920
C          0.72825        1.77483       -0.51226
C          2.13004        1.61728       -0.76727
H          2.59731        2.46795       -1.26054
H          0.40845        2.76035       -0.83409
N          2.91145       -1.42103        0.97149
H          3.91035       -1.21397        1.00178
H          2.79555       -2.30759        1.46330
