26
Coordinates from ORCA-job ./opt_b97-3c_parallel
N         -5.36931       -0.32438       -1.20387
C         -4.31051       -0.15368       -0.81275
C         -2.99153        0.03549       -0.29408
C         -2.62850        1.34090       -0.00670
C         -1.29109        1.84833        0.25605
C         -0.07708        1.16142        0.21410
N          0.97089        2.06167        0.12692
C          2.22683        1.58128       -0.05706
N          3.11076        0.56282       -0.25384
C          2.58878       -0.71629       -0.23351
N          3.58301       -1.16543       -0.44741
H          4.55602       -1.14884       -0.76132
H          3.35555       -2.16215       -0.38341
C          1.23227       -1.13033        0.10070
C          1.09085       -2.55501        0.19607
N          1.03039       -3.69319        0.25894
C          0.03938       -0.29141        0.32549
C         -1.06539       -0.94071        0.77426
C         -2.15608       -1.08302       -0.00661
H         -2.53987       -2.07247       -0.24213
H         -1.12271       -1.24627        1.81798
N          2.72256        2.57028       -0.04908
H          3.70684        2.76172        0.14162
H          2.27979        3.49112       -0.07958
H         -1.25916        2.93428        0.32102
H         -3.39251        2.10907       -0.10201
