26
Coordinates from ORCA-job ./opt_b97-3c_parallel
N         -5.05272       -0.96456       -0.20426
C         -3.92732       -0.78089       -0.12850
C         -2.50399       -0.52733       -0.06896
C         -1.87772        0.77249        0.01060
N         -2.65306        1.57300        0.04486
H         -2.52582        2.52184        0.39425
H         -3.65597        1.45207       -0.09360
C         -0.44869        1.07234        0.00103
C         -0.15149        2.50113        0.03336
N          0.12405        3.61052        0.06120
C          0.66245        0.18629       -0.02579
N          1.82900        0.88001       -0.10493
C          3.02680        0.25353       -0.08443
N          3.86111       -0.80159       -0.00781
C          3.17129       -1.97713        0.11712
C          1.73690       -2.17304        0.11143
C          0.59346       -1.22866        0.02673
C         -0.52159       -2.06212        0.00805
C         -1.91043       -1.76239       -0.07630
H         -2.53227       -2.65791       -0.11928
H         -0.40417       -3.14164        0.02474
H          1.53219       -3.23684        0.18937
H          3.83801       -2.85030        0.19143
N          3.64519        1.16118       -0.18838
H          3.43483        2.11300       -0.48842
H          4.65588        1.12189       -0.06284
