27
Coordinates from ORCA-job ./opt_b97-3c_parallel
N         -5.31467       -0.22301        0.08830
C         -4.21298        0.07579        0.05985
C         -2.81802        0.38923        0.02329
C         -2.01224       -0.70908       -0.10442
N         -0.69970       -0.94196       -0.13591
C          0.35875       -0.02836       -0.07709
C          0.22507        1.42300       -0.03150
C          1.30485        2.38529       -0.06631
C          2.71654        2.18147       -0.10637
C          3.44947        1.02851       -0.06868
C          2.94074       -0.32514       -0.03444
C          1.62055       -0.77099       -0.07262
C          1.62597       -2.22282       -0.08575
N          1.57206       -3.36465       -0.09581
N          3.92063       -0.85766        0.00092
H          4.89353       -0.61733       -0.18758
H          3.93565       -1.78725        0.41965
H          4.52871        1.22734       -0.06981
H          3.27774        3.11158       -0.13839
H          1.05394        3.44247       -0.06809
C         -1.01302        2.18577        0.04885
C         -2.37201        1.73704        0.10807
H         -3.13437        2.50711        0.19672
H         -0.94641        3.26924        0.09839
N         -1.98136       -1.81429       -0.20251
H         -1.58207       -2.72135       -0.45014
H         -2.98647       -1.97178       -0.11923
