24
Coordinates from ORCA-job ./opt_b97-3c_parallel
N         -4.13044       -1.77710        0.08772
C         -2.99436       -1.67889        0.02892
C         -1.57105       -1.50001       -0.02355
C         -0.78045       -2.69064       -0.07469
N          0.15632       -3.26244       -0.12612
C          0.91680       -2.46868       -0.12710
C          1.44551       -1.13961       -0.08068
C          2.87418       -1.10231       -0.18257
N          4.01027       -1.08100       -0.30683
C          0.54022       -0.06615        0.00862
C         -0.94778       -0.24428       -0.01946
N         -1.80885        0.79660       -0.05483
C         -1.31916        2.05896       -0.05347
N         -0.41433        3.06430       -0.00294
C          0.83039        2.59828        0.14643
C          1.26758        1.20667        0.17314
C          2.49749        1.92860        0.35561
N          3.31185        1.88742        1.16121
H          0.77551        3.69958        0.16655
N         -2.28629        2.57774       -0.17466
H         -3.22051        2.20207       -0.34177
H         -2.35395        3.57594       -0.37292
H          1.60261       -3.32897       -0.22047
H         -1.27900       -3.67433       -0.07098
