22
Coordinates from ORCA-job ./opt_b97-3c_parallel
N         -4.87263       -0.48748        0.23954
C         -3.73440       -0.45433        0.14248
C         -2.30584       -0.42683        0.05705
C         -1.59608       -1.66377        0.09390
N         -0.25345       -1.89390       -0.07894
C          0.75697       -0.95749       -0.14039
C          1.79839       -1.77484       -0.44012
C          2.93204       -1.61957        0.27324
N          3.73624       -0.55322        0.56595
C          3.26134        0.71799        0.28519
C          1.97172        1.16354        0.01953
C          0.74900        0.48401       -0.05422
C         -0.41261        1.25258       -0.09086
C         -0.51864        2.68833       -0.13779
N         -0.45783        3.62870       -0.78488
C         -1.80821        0.85244       -0.07176
H         -2.56410        1.64098       -0.11578
H          1.94134        2.24510       -0.03322
H          4.12667        1.37754        0.44932
H          3.46854       -2.54860        0.51662
H          1.84127       -2.27420       -1.40676
H         -2.06886       -2.65461        0.16966
