25
Coordinates from ORCA-job ./opt_b97-3c_parallel
N          3.49188        2.60685       -0.81953
C          3.04538        1.63097       -0.42353
C          2.17689        0.51381       -0.16752
C          0.82733        1.00037       -0.28296
C         -0.28686        0.29144        0.03471
C         -1.19020        1.17989        0.55242
N         -2.55630        1.40051        0.59485
C         -3.27204        0.37540        0.00349
N         -2.95159       -0.76451       -0.52468
C         -1.91929       -1.53026       -0.34232
C         -0.59206       -1.03043       -0.07983
C          0.32961       -2.11449        0.10985
C          1.69040       -1.95449        0.29223
C          2.46896       -0.80523        0.16335
N          3.53830       -1.06535        0.28435
H          4.01356       -1.96445        0.21773
H          4.23948       -0.35749        0.06860
H          2.20263       -2.89722        0.49481
H         -0.08161       -3.12067        0.11707
H         -2.39446       -2.51764       -0.45071
N         -4.35593        0.57289       -0.00583
H         -5.09110        0.03033       -0.45784
H         -4.74711        1.49951        0.16033
H         -1.22566        2.14874        1.07454
H          0.69218        2.03488       -0.60317
