29
Coordinates from ORCA-job ./opt_b97-3c_parallel
N         -4.54995       -1.34949       -1.43780
C         -4.34304       -0.97962       -0.37582
C         -3.07633       -0.39760       -0.04739
C         -3.17434        0.96559       -0.13208
N         -2.26914        1.90300        0.32021
C         -0.92958        1.68942        0.58923
N         -1.16820        2.76011        0.74518
H         -1.27502        3.36600        1.55896
H         -0.17666        2.79402        0.50132
C         -0.10338        0.52208        0.31179
C          1.28632        0.90120        0.04223
N          1.54619        1.97693       -0.10812
H          1.73508        2.03892       -1.11058
H          2.44860        2.11548        0.35089
C          2.40451        0.01363       -0.25501
C          3.65135        0.50398       -0.81918
N          4.60666        0.91573       -1.29241
C          2.52721       -1.32671        0.08545
N          3.38384       -2.03633        0.02817
H          4.15924       -1.70963       -0.54229
H          3.63044       -2.97974        0.32807
C          1.53130       -2.19802        0.66317
C          0.17782       -1.99055        0.72489
C         -0.62891       -0.82630        0.43397
C         -1.96726       -1.19647        0.38128
H         -2.22693       -2.24770        0.48352
H         -0.37292       -2.88052        1.01866
H          1.80378       -3.21618        0.96847
H         -4.03982        1.59818       -0.38540
