31
Coordinates from ORCA-job ./opt_b97-3c_parallel
N         -5.37412       -0.23305       -0.69857
C         -4.31869        0.03175       -0.35856
C         -2.96511        0.31938        0.05815
C         -1.89375       -0.50880       -0.29363
N         -2.14680       -1.39770       -0.92286
H         -1.92954       -1.05740       -1.86162
H         -3.13338       -1.66409       -0.95854
C         -0.49639       -0.41469        0.14390
C          0.19150       -1.62624        0.20479
N          1.48127       -1.86786        0.65149
C          2.52809       -0.96289        0.62501
N          3.18387       -1.75868        1.03510
H          3.47187       -2.38063        1.79221
H          4.04967       -1.31852        0.71500
C          2.55722        0.19645       -0.22386
C          3.87248        0.50415       -0.73160
N          4.92956        0.69832       -1.11506
C          1.47778        1.08179       -0.29190
N          1.70911        2.07172       -0.74793
H          2.51270        2.49685       -1.21378
H          0.92244        2.69287       -0.94052
C          0.13892        0.88256        0.26961
C         -0.48369        2.04115        0.71694
C         -1.75359        2.14224        1.35916
C         -2.90042        1.35682        1.04541
H         -3.84167        1.74484        1.42929
H         -1.94455        3.04648        1.93033
H          0.10300        2.94565        0.85883
N          0.15294       -2.73676        0.20411
H         -0.78506       -2.52422       -0.14322
H          0.11431       -3.72669        0.45200
