26
Coordinates from ORCA-job ./opt_b97-3c_parallel
N          5.65536        0.27673        1.17823
C          4.57505        0.14873        0.83163
C          3.23876       -0.02985        0.35759
C          2.59016       -1.30552        0.37120
C          1.46072       -1.55449       -0.33616
C          0.33797       -0.79185       -0.28781
N         -0.79244       -1.61790       -0.27878
C         -2.05071       -1.16686       -0.06258
N         -2.24665       -2.25791       -0.09829
H         -2.13828       -3.18001       -0.52083
H         -3.21838       -2.21103        0.21125
C         -2.61763        0.06516        0.22976
C         -3.95949        0.01779        0.72744
N         -5.03169       -0.07043        1.11018
C         -1.91794        1.29880        0.00596
C         -0.80292        1.36547       -0.76852
C          0.29688        0.63772       -0.45090
N          1.40001        1.47953       -0.51769
C          2.64528        1.10771       -0.15094
H          3.03289        2.12878       -0.28864
H         -0.87226        1.78629       -1.77390
N         -2.19175        2.35181        0.20538
H         -3.11224        2.66219        0.51741
H         -1.57639        3.16050        0.29552
H          1.49810       -2.37483       -1.05055
H          3.14779       -2.12993        0.80743
