21
Coordinates from ORCA-job ./opt_b97-3c_parallel
N         -2.83777       -1.42671        0.24612
C         -2.21188       -0.56227       -0.02826
N         -1.04168       -1.16678        0.16993
C          0.15252       -0.55551        0.06819
N          1.03265       -1.50527        0.13678
C          2.28853       -1.64355       -0.15564
C          3.24269       -0.73299        0.18576
C          2.77859        0.54307        0.29853
N          1.69767        1.40391        0.30302
C          0.40970        0.88850        0.14289
C         -0.58493        1.94420        0.17294
C         -1.97459        1.75752       -0.13699
C         -2.51929        0.61375       -0.61707
H         -3.25042        0.65387       -1.42337
H         -2.58876        2.65237       -0.09068
H         -0.25746        2.95961        0.38343
H          3.58439        1.26920        0.48846
H          4.29511       -0.92605       -0.01465
H          2.58933       -2.00677       -1.15008
H         -2.91018       -2.22729        0.87291
H         -3.75823       -0.98910        0.23394
