28
Coordinates from ORCA-job ./opt_b97-3c_parallel
N          5.35826        0.73723       -0.09202
C          4.25550        0.44289       -0.07694
C          2.87106        0.02736       -0.05589
C          2.80159       -1.39421        0.06238
N          1.72219       -2.24508       -0.00968
C          0.39141       -1.91392       -0.13175
N          0.42025       -3.02379       -0.17124
H          0.71329       -3.73544       -0.84535
H         -0.05531       -3.54321        0.56902
C         -0.27582       -0.69798       -0.10815
C         -1.70306       -0.96336       -0.21578
C         -2.78332       -0.09860       -0.15009
C         -4.01746       -0.80345       -0.32071
N         -5.00757       -1.34591       -0.49031
C         -2.81972        1.30674        0.10634
N         -1.74304        2.15310        0.18610
C         -0.40873        1.81882        0.07257
C          0.31648        0.63348       -0.03684
C          1.76892        0.89682       -0.09644
N          2.10785        1.95940       -0.16694
H          2.87034        2.36133        0.38249
H          2.19674        2.37222       -1.09678
H         -0.32550        2.91436        0.15873
N         -3.50352        2.16627        0.24708
H         -4.36888        2.12528       -0.29476
H         -3.70846        2.78991        1.02993
H         -1.96086       -2.01278       -0.35826
H          3.66205       -2.07915        0.13297
