25
Coordinates from ORCA-job ./opt_b97-3c_parallel
N         -4.56763       -1.66695        0.76117
C         -3.65131       -1.07430        0.42817
C         -2.47625       -0.35694        0.03920
C         -1.17913       -0.83147        0.41123
C         -0.05310       -0.40818       -0.21732
C          0.59072       -1.50250       -0.71498
N          1.93051       -1.81379       -0.59036
C          2.63921       -0.80115        0.02490
N          2.71853        0.47542        0.56916
C          1.59929        1.31586        0.51816
N          2.23160        2.16153        0.85388
H          1.42659        2.78156        0.96029
H          2.99263        2.63839        1.34284
C          0.31407        0.88161       -0.00300
C         -0.49977        1.99878       -0.40182
C         -1.77392        1.87016       -0.92834
C         -2.69597        0.76687       -0.74005
H         -3.70455        0.95105       -1.10469
H         -2.20377        2.74765       -1.40436
H         -0.03744        2.98187       -0.40495
N          3.62420       -1.30396        0.02473
H          3.80533       -2.27056       -0.25313
H          4.54396       -0.86271        0.05175
H          0.21960       -2.41129       -1.21557
H         -1.15245       -1.69588        1.07194
