29
Coordinates from ORCA-job ./opt_b97-3c_parallel
N          4.98720        0.35119       -0.10165
C          3.85105        0.23568       -0.05516
C          2.40677        0.12297       -0.01484
C          1.90960       -1.16892       -0.08137
N          2.51723       -2.10087       -0.16338
H          3.51995       -1.92211       -0.17270
H          2.40517       -3.11229       -0.13627
C          0.54035       -1.64400       -0.01687
C         -0.66403       -0.94339        0.03903
C         -1.75432       -1.91024        0.12007
C         -3.11231       -1.73172        0.14870
C         -3.85858       -0.59767        0.04809
C         -3.42726        0.69476       -0.06584
N         -4.23274        1.44930       -0.14471
H         -5.21981        1.29096       -0.33733
H         -4.03594        2.41512       -0.39927
C         -2.08002        1.19098       -0.04277
C         -0.86579        0.50408        0.02267
C          0.19945        1.49339        0.08476
C          1.63350        1.33028        0.10192
N          2.08255        2.34422        0.17287
H          1.72990        3.29903        0.15704
H          3.09812        2.40575        0.11836
H         -0.12945        2.53279        0.14047
H         -2.05382        2.27712       -0.10148
H         -4.93401       -0.77106        0.06072
H         -3.68974       -2.64698        0.23532
H         -1.48109       -2.95867        0.17987
H          0.44317       -2.73290       -0.04081
