25
Coordinates from ORCA-job ./opt_b97-3c_parallel
N         -4.85334       -0.41749       -1.17119
C         -3.77770       -0.32925       -0.79628
C         -2.43866       -0.23042       -0.28729
C         -1.70194       -1.44584       -0.14076
C         -0.59260       -1.50867        0.62467
C          0.55890       -0.92021        0.22605
C          0.61310        0.53727        0.20805
N          1.76436        1.30023        0.10871
C          2.93344        0.65233       -0.13166
N          3.71122       -0.43499       -0.36489
C          3.03544       -1.63504       -0.34661
C          1.64089       -1.86472       -0.03364
H          1.36718       -2.91549        0.01393
H          3.66525       -2.52177       -0.51668
N          3.65572        1.48488       -0.15847
H          4.63217        1.43636       -0.44605
H          3.53244        2.39738        0.27838
C         -0.50711        1.35278        0.36084
C         -1.90958        0.99244        0.12717
N         -2.46785        1.94946        0.17416
H         -2.54207        2.79266       -0.39357
H         -3.41820        1.71683        0.46237
H         -0.29603        2.41303        0.52878
H         -0.64773       -1.97831        1.60458
H         -2.17825       -2.36255       -0.47758
