31
Coordinates from ORCA-job ./opt_b97-3c_parallel
N         -5.25923       -1.29539       -0.34195
C         -4.13685       -1.09009       -0.27149
C         -2.72342       -0.81470       -0.14567
C         -2.16300        0.33992        0.53021
N         -2.94382        0.99770        0.97507
H         -3.95299        0.85843        1.00344
H         -2.76799        1.93567        1.33017
C         -0.77829        0.78775        0.48092
C         -0.46084        2.05711        1.10055
N         -0.20716        3.04359        1.61974
C          0.35291       -0.00624        0.01461
C          0.35934       -1.41372       -0.29632
C          1.58226       -2.17935       -0.18093
C          2.74043       -1.74286        0.43195
C          3.26978       -0.40706        0.52108
C          2.74065        0.65150       -0.19178
C          1.38144        0.76839       -0.66404
C          1.03244        1.89216       -1.49848
N          0.76380        2.80101       -2.13790
N          3.54537        1.40110       -0.33813
H          4.55898        1.40691       -0.43415
H          3.21044        2.28757       -0.71240
H          4.26699       -0.32013        0.96350
N          3.43871       -2.52657        0.77778
H          4.37404       -2.38297        1.15394
H          3.10896       -3.41730        1.14489
H          1.47866       -3.25042       -0.34853
C         -0.70413       -2.22294       -0.63999
C         -2.09302       -1.90621       -0.70313
H         -2.68835       -2.71605       -1.12504
H         -0.49705       -3.24031       -0.95931
