31
Coordinates from ORCA-job ./opt_b97-3c_parallel
N         -3.90030       -3.01694        0.38546
C         -3.14214       -2.19651        0.15042
C         -2.23261       -1.12409       -0.11555
C         -2.83080        0.11858       -0.05412
N         -2.44391        1.31123       -0.54059
C         -1.12364        1.49243       -0.93459
N         -1.60283        2.42401       -1.30381
H         -1.61500        2.80393       -2.25173
H         -0.88340        2.96066       -0.81092
C         -0.03825        0.95988       -0.13445
C          0.77074        1.92349        0.45010
N          0.53722        2.99834        0.60636
H          0.31579        3.25862        1.56960
H          1.37303        3.53414        0.36232
C          2.00645        1.73874        1.16787
C          2.88217        0.69370        1.03051
C          2.80482       -0.48237        0.20756
C          4.05832       -1.19243        0.11348
N          5.04620       -1.75603        0.00494
C          1.56314       -1.04258       -0.32570
N          1.68620       -2.05177       -0.77740
H          2.55838       -2.54536       -0.58459
H          1.29432       -2.50692       -1.60066
C          0.22633       -0.45208       -0.27954
C         -0.86832       -1.40230       -0.48340
H         -0.64651       -2.46217       -0.57902
H          3.84315        0.82636        1.52396
H          2.40644        2.56133        1.76768
N         -3.81300        0.59617        0.15442
H         -4.66143        1.01376       -0.23248
H         -4.14118       -0.03209        0.89140
