23
Coordinates from ORCA-job ./opt_b97-3c_parallel
N          3.96597        1.69849       -1.22674
C          3.67410        1.03706       -0.34276
C          2.42937        0.36791       -0.11050
C          2.68031       -0.97815       -0.03131
N          1.81448       -2.02417        0.19832
C          0.44245       -1.96087        0.29724
C         -0.46341       -0.85103        0.20993
C         -1.75248       -1.34554        0.05748
N         -2.95737       -0.83577       -0.27086
C         -3.10449        0.52108       -0.10708
C         -2.37013        1.35574        0.66573
C         -1.07835        1.58423        0.32837
C         -0.07285        0.55435        0.18462
C          1.19759        1.08252        0.05216
H          1.31070        2.16312        0.02167
H         -0.74577        2.61832        0.29371
H         -2.75901        1.71753        1.61669
N         -4.09140        0.72669       -0.55618
H         -4.27856        1.71469       -0.72511
H         -4.61384        0.21621       -1.26775
H         -2.03588       -2.40724       -0.01774
H          0.84482       -2.98458        0.34743
H          3.55931       -1.63759       -0.09616
