27
Coordinates from ORCA-job ./opt_b97-3c_parallel
N         -0.19276       -3.28135       -0.29722
C         -0.97185       -2.74985        0.35295
C         -0.99876       -1.31713        0.29667
C          0.08330       -0.34581        0.44232
C          1.31223       -0.82029        0.77743
C          2.32416       -0.76037       -0.12063
N          2.91777        0.45260       -0.41263
C          2.30788        1.66948       -0.08922
N          3.15793        2.35396       -0.27703
H          3.82148        2.69006        0.42554
H          3.37662        2.89225       -1.11895
C          0.97504        1.96724        0.21853
C         -0.18038        1.07276        0.31536
C         -1.41523        1.64328        0.42543
C         -2.56999        1.16486       -0.10184
N         -3.11002       -0.07528       -0.32073
C         -2.33975       -1.20342       -0.06419
H         -3.27817       -1.73794       -0.28706
N         -3.53648        1.62770       -0.38063
H         -4.23006        1.49801       -1.12093
H         -3.96336        2.30472        0.25537
H         -1.49247        2.54355        1.03530
H          0.73768        3.02691        0.29505
N          2.88224       -1.66743       -0.42338
H          2.46829       -2.48887       -0.87187
H          3.83887       -1.95087       -0.19795
H          1.49055       -1.20126        1.78334
