23
Coordinates from ORCA-job ./opt_b97-3c_parallel
N          4.48207        1.40408        0.54726
C          3.47183        0.87315        0.61230
C          2.48818        0.50972        0.26085
C          2.20008       -0.81413        0.04286
N          1.00334       -1.30336        0.19565
C         -0.25815       -0.99724        0.21364
C         -1.24188       -1.88213        0.39365
C         -2.55292       -1.50486        0.31128
N         -3.44761       -0.48562        0.04477
C         -2.80156        0.71073       -0.19906
N         -1.53277        1.26720       -0.23577
C         -0.52972        0.33474       -0.01109
N          0.24938        1.38004       -0.03279
C          1.53016        1.48809        0.17902
H          1.46625        2.45398        0.70523
N         -3.69268        1.33510       -0.39197
H         -4.65807        1.13489       -0.12449
H         -3.74915        2.14727       -1.00820
H         -3.22023       -2.36205        0.49467
H         -1.00221       -2.93130        0.56050
N          2.35348       -1.58680       -0.73306
H          3.33757       -1.33578       -0.83204
H          2.27140       -2.53716       -1.09376
