27
Coordinates from ORCA-job ./opt_b97-3c_parallel
N          4.62401        1.37298       -0.03650
C          3.60286        0.86670       -0.11446
C          2.30440        0.26457       -0.19554
C          1.11759        0.89230        0.31864
N          1.03339        1.83447        0.89935
H          2.04339        1.94913        0.98369
H          0.62612        2.61063        1.41884
C         -0.12495        0.51145       -0.08727
C         -0.87703        1.17526       -1.01608
N         -2.22709        1.45938       -1.04003
C         -2.88812        0.78074       -0.03881
N         -2.88723       -0.16922        0.96623
C         -1.74130       -0.95193        1.10754
C         -0.53167       -0.71210        0.34428
C          0.12219       -1.94148       -0.03250
N         -0.27630       -2.96752        0.09558
H          0.41524       -3.70893        0.20433
H         -1.17783       -3.43375        0.00525
C          1.31147       -1.99740       -0.75424
C          2.31937       -0.95892       -0.84727
H          3.24037       -1.27453       -1.33254
H          1.63470       -2.94443       -1.18932
H         -2.62916       -1.26057        1.68098
N         -3.95501        1.05810       -0.03312
H         -4.75715        0.58382        0.38013
H         -4.27776        1.43071       -0.92537
H         -0.44698        1.79119       -1.82068
