27
Coordinates from ORCA-job ./opt_b97-3c_parallel
N         -0.88460       -3.55956        1.58822
C         -1.03898       -2.55171        1.07254
C         -1.16255       -1.27842        0.42168
C         -2.49403       -0.91693        0.03052
C         -2.73298        0.06002       -0.87640
C         -2.65324        1.15309       -0.07840
C         -1.40389        1.66757        0.40358
C         -0.19188        1.01375        0.21141
N          0.85134        1.86113        0.30482
C          2.10895        1.39399        0.09476
N          3.02804        0.43601       -0.20093
C          2.49792       -0.82416       -0.36627
N          3.37304       -1.46161       -0.60508
H          4.29370       -1.39713       -1.04419
H          3.20279       -2.46585       -0.51143
C          1.11625       -1.21195       -0.15002
C         -0.05700       -0.47019        0.10109
H          1.02197       -2.28775       -0.27142
N          2.61838        2.36251        0.25830
H          3.58811        2.62185        0.07431
H          2.20822        3.18556        0.70404
H         -1.42205        2.69689        0.76211
N         -3.53306        1.81422        0.01728
H         -3.71891        2.72476       -0.40278
H         -4.44508        1.41851        0.24568
H         -3.51449       -0.05548       -1.62802
H         -3.30001       -1.58701        0.31959
