23
Coordinates from ORCA-job ./opt_b97-3c_parallel
N          3.81879        1.94648       -0.60018
C          2.99620        1.18650       -0.36939
C          1.95664        0.22611       -0.12101
C          2.66335       -0.95557        0.05220
N          2.36497       -2.24072        0.31452
C          1.02327       -2.50425        0.39965
N         -0.06816       -1.84425        0.25985
C         -0.42607       -0.60964        0.13978
C          0.51599        0.48155       -0.06570
N          0.24914        1.54691       -0.23040
C         -0.54604        2.29529       -0.39543
C         -1.73237        2.12445        0.25900
C         -2.38977        0.93013        0.09335
C         -1.81033       -0.40519        0.12202
C         -2.84213       -1.40804        0.13441
N         -3.55053       -2.08621       -0.45447
N         -3.40062        1.38274        0.00898
H         -3.89286        2.20897       -0.32637
H         -3.72659        0.60121       -0.55666
H         -1.89608        2.71906        1.16303
H         -0.00497        3.09906        0.12711
H          0.72942       -3.54171        0.62063
H          3.66298       -1.41512        0.07529
