25
Coordinates from ORCA-job ./opt_b97-3c_parallel
N          1.79491        2.89088       -0.92340
C          1.60021        2.02605       -0.20104
C          1.11293        0.67648        0.01760
C         -0.31170        0.34934        0.14537
C         -1.07215        1.47384        0.46404
C         -2.48253        1.66460        0.58840
C         -3.51481        0.79978        0.13776
C         -3.34360       -0.50670       -0.39420
C         -2.21737       -1.28782       -0.42084
C         -0.83341       -0.98809       -0.09769
C         -0.12850       -2.18118       -0.10255
C          1.21905       -2.46566        0.26957
C          2.30937       -1.55909        0.37572
C          2.24168       -0.14298        0.08715
N          3.34514        0.02285        0.05362
H          3.43820        0.85915       -0.52062
H          4.19715       -0.51713       -0.08243
H          3.25501       -2.07999        0.57224
H          1.47252       -3.51635        0.37267
H         -0.66072       -3.11539       -0.25839
H         -2.43844       -2.30106       -0.74337
H         -4.27509       -0.96827       -0.70696
H         -4.53053        1.18007        0.19253
H         -2.80208        2.63743        0.94858
H         -0.58197        2.38933        0.77200
