25
Coordinates from ORCA-job ./opt_b97-3c_parallel
N         -1.53495       -3.72930       -0.35457
C         -1.42886       -2.59558       -0.26456
C         -1.24908       -1.17411       -0.16224
C         -0.02539       -0.54935        0.27628
N          0.88536       -1.40222        0.76939
C          2.17194       -1.11519        1.03734
N          3.00686       -0.12401        0.51644
C          2.60310        0.93058       -0.30026
N          3.59683        1.27754       -0.63310
H          3.68573        2.23862       -0.96217
H          4.50875        0.84508       -0.77937
C          1.23221        1.29900       -0.52454
C          0.19590        0.77411        0.17793
C         -0.61707        1.73212        0.67874
C         -1.98278        1.85945        0.26270
N         -2.45560        2.82487        0.51028
H         -2.29598        3.75631        0.89121
H         -3.45770        2.75896        0.33606
C         -2.69576        0.90785       -0.45149
C         -2.36786       -0.49471       -0.62778
H         -3.16957       -1.07432       -1.08132
H         -3.68699        1.17800       -0.80988
H         -0.19280        2.54108        1.27207
H          1.05887        2.12073       -1.21461
H          2.56569       -1.99537        1.56940
