22
Coordinates from ORCA-job ./opt_b97-3c_parallel
N         -5.16234       -0.35507        0.12894
C         -4.04736       -0.10782        0.06954
C         -2.66435        0.23852        0.00466
C         -1.89541       -0.85066       -0.28594
N         -0.59519       -1.12739       -0.36396
C          0.43086       -0.20282       -0.23333
C          0.34446        1.24861       -0.17145
C          1.44805        2.01332       -0.37959
C          2.58319        1.87626        0.34000
N          3.44402        0.83586        0.56890
C          2.96676       -0.36134        0.18683
C          1.73410       -0.86356       -0.20460
C          1.97522       -2.27371       -0.31498
N          2.16959       -3.39946       -0.36800
H          4.00202       -0.66694        0.40197
H          3.11543        2.77851        0.67674
H          1.45101        2.70475       -1.21958
C         -0.85594        2.02254        0.04680
C         -2.20727        1.57338        0.20865
H         -2.95742        2.33049        0.41516
H         -0.72577        3.09817        0.12512
H         -1.97201       -1.92903       -0.49084
