25
Coordinates from ORCA-job ./opt_b97-3c_parallel
N         -4.57475        0.45506       -0.45081
C         -3.45683        0.26301       -0.32447
C         -2.05268        0.06328       -0.14495
C         -1.34412        1.24875       -0.07726
N         -0.05830        1.56862        0.12851
C          0.96680        0.63500        0.23559
C          2.05318        1.36066        0.58568
C          3.12457        1.36032       -0.23580
C          3.91756        0.19313       -0.45459
C          3.50326       -1.12546       -0.03361
C          2.15322       -1.57911        0.25190
C          0.92974       -0.80293        0.17369
N         -0.18869       -1.62737        0.11316
C         -1.52018       -1.26869       -0.01022
N         -1.82618       -2.33626        0.00320
H         -1.42845       -3.26625       -0.15212
H         -2.81920       -2.51519        0.17366
H          2.05349       -2.65636        0.36101
H          4.25865       -1.90395       -0.10250
H          4.91180        0.31637       -0.87649
H          3.55484        2.30170       -0.56706
H          2.15852        1.73916        1.60154
N         -1.43790        2.35906       -0.11168
H         -2.42916        2.59824       -0.20390
H         -0.96536        3.26682       -0.15417
