28
Coordinates from ORCA-job ./opt_b97-3c_parallel
N          2.77567        2.78773       -1.26968
C          2.49869        1.77049       -0.82763
C          2.13493        0.47414       -0.31588
C          3.26573       -0.29126       -0.56566
C          3.45467       -1.68866       -0.32473
C          2.52665       -2.59560        0.11145
N          1.19198       -2.44544        0.39921
C          0.44947       -1.28278        0.39304
C         -0.73498       -1.71819        0.88697
C         -1.73236       -1.47871       -0.00420
N         -2.05433       -2.51372       -0.23889
H         -1.51728       -3.31967       -0.55401
H         -2.90469       -2.48617       -0.79935
C         -2.27607       -0.16541       -0.22312
C         -3.58136       -0.12759       -0.84402
N         -4.62637       -0.10707       -1.30709
C         -1.60140        0.94978        0.30194
N         -2.26152        1.84090        0.42702
H         -1.97668        2.58663        1.06030
H         -3.27445        1.90500        0.33796
C         -0.13813        1.07608        0.48734
C          0.29762        2.35335        1.00912
N          0.62008        2.78094        2.01918
C          0.81279        0.08834        0.17250
H         -0.92799       -1.70175        1.95865
H          2.79676       -3.65416        0.24408
H          4.44943       -2.06920       -0.53543
H          4.16958        0.17692       -0.95889
