23
Coordinates from ORCA-job ./opt_b97-3c_parallel
N         -1.98952       -2.89044       -0.64624
C         -1.65834       -2.09371        0.10364
C         -1.13516       -0.74668        0.02262
C         -2.21636        0.14576        0.10475
C         -2.20692        1.59915        0.04521
C         -1.07710        2.33971       -0.14666
N          0.20852        2.04076       -0.27510
C          0.84810        0.87442       -0.19780
N          2.09400        1.27738       -0.52581
C          3.13382        0.42904       -0.24020
C          3.23559       -0.61530        0.61032
C          2.53342       -1.64154        0.07453
C          1.11511       -1.62221       -0.15446
C          0.30649       -0.47985       -0.07461
H          0.71711       -2.61631       -0.32556
H          3.01078       -2.61336       -0.01777
H          4.15327       -0.79564        1.16721
H          4.10637        0.83111       -0.56472
H         -1.27286        3.42133       -0.20911
H         -3.13491        2.18029        0.12196
N         -3.31769        0.01550        0.21152
H         -4.18985        0.31021        0.65056
H         -3.54129       -0.82812       -0.31748
