28
Coordinates from ORCA-job ./opt_b97-3c_parallel
N         -5.00731        0.23441        0.02870
C         -3.90333        0.28282       -0.26426
C         -2.79708        0.22647       -0.18519
C         -2.23339       -0.99061       -0.49922
N         -0.99107       -1.25503       -0.21144
C          0.18366       -0.71375       -0.03187
C          0.13998        0.64501       -0.23611
N          0.86969        1.79967       -0.43516
C          2.22208        1.57608       -0.32004
N          3.12536        0.59322        0.05405
C          2.52983       -0.63062        0.32533
C          1.33804       -1.33349        0.27089
C          1.41820       -2.43322        0.43815
N          1.87734       -3.37917        0.88933
N          3.61476       -0.71276        0.58710
H          4.52359       -0.42412        0.95429
H          3.54389       -1.70820        0.80978
N          2.79132        2.49367       -0.53314
H          2.10794        3.21041       -0.77755
H          3.66892        2.78491       -0.96158
N         -0.82625        1.51155       -0.09978
C         -2.08306        1.33708        0.20555
N         -1.99363        2.03323        1.06442
H         -1.80713        3.01136        1.27810
H         -2.91254        1.82058        1.45022
N         -2.12185       -1.90501       -1.11463
H         -1.89615       -2.66830       -1.75030
H         -3.11234       -1.70538       -1.24983
