28
Coordinates from ORCA-job ./opt_b97-3c_parallel
N         -4.75082       -1.36028       -0.00460
C         -3.65423       -1.03972        0.02991
C         -2.25590       -0.63374        0.03171
C         -1.86787        0.76955        0.04021
N         -2.74603        1.45689        0.08817
H         -3.73471        1.23355       -0.02454
H         -2.70762        2.43932        0.35882
C         -0.53433        1.36357       -0.05208
C         -0.47538        2.81691       -0.07951
N         -0.42932        3.95910       -0.06656
C          0.73623        0.63217       -0.12745
N          1.81597        1.51894       -0.29135
C          3.11216        1.07694       -0.39071
C          4.23551        0.31594       -0.44867
C          3.37861       -0.70935       -0.17530
N          2.21394       -1.42324        0.03628
C          0.94256       -0.81878        0.00025
C          0.01151       -1.83469        0.10851
C         -1.43433       -1.75369        0.06562
N         -1.68977       -2.83964        0.08859
H         -1.91813       -3.35061       -0.76390
H         -2.47806       -2.98064        0.72089
H          0.45870       -2.83723        0.19193
N          3.81761       -1.71062        0.01086
H          4.06177       -2.57641       -0.47033
H          4.35721       -1.70568        0.87640
H          5.09018        0.54456        0.18628
H          3.26823        2.16276       -0.49236
