30
Coordinates from ORCA-job ./opt_b97-3c_parallel
N          0.78117        4.02691        1.54702
C          0.38632        3.04817        1.10838
C         -0.13619        1.81346        0.59077
C         -1.55129        1.66343        0.77544
C         -2.39098        0.88387       -0.08965
C         -3.73801        1.38709       -0.21237
N         -4.79343        1.80860       -0.33297
C         -1.95811       -0.35225       -0.72749
N         -2.75713       -0.83656       -1.33653
H         -3.70875       -0.51243       -1.50271
H         -2.77699       -1.85120       -1.43107
C         -0.82952       -1.08609       -0.36719
C         -0.68994       -2.46331       -0.80310
N         -0.81349       -3.57085       -1.05718
C          0.45717       -0.55255        0.06473
C          1.29573       -1.36531        0.82511
C          0.76034       -2.27049        1.80387
N          0.33596       -2.96512        2.60586
C          2.70016       -1.49131        0.56205
C          3.37960       -0.79811       -0.48962
C          3.03845        0.54272       -0.88250
C          2.03095        1.33625       -0.37500
C          0.73452        0.85997        0.07241
H          2.14374        2.40790       -0.52167
N          3.85570        1.01660       -1.45429
H          3.84141        2.01915       -1.63307
H          4.81142        0.70542       -1.61785
H          4.34773       -1.19834       -0.78670
H          3.22455       -2.32042        1.02897
H         -2.04481        2.49575        1.27386
