29
Coordinates from ORCA-job ./opt_b97-3c_parallel
N          3.87645        2.08405       -1.60019
C          3.64966        1.81796       -0.51004
C          2.63940        0.88498       -0.11386
C          3.13470       -0.39935       -0.13210
N          2.59485       -1.49553        0.51757
C          1.25298       -1.63745        0.81541
N          1.74077       -2.55441        1.19336
H          0.74473       -2.76484        1.09621
H          2.03290       -2.98704        2.06998
C          0.20999       -0.89145        0.14745
C         -0.85499       -1.73992       -0.35182
N         -0.73877       -2.83160       -0.52828
H         -1.61163       -3.26862       -0.82786
H         -0.01336       -3.25667       -1.10656
C         -2.09464       -1.28664       -0.93782
C         -2.74272       -0.10565       -0.63064
N         -3.76667       -0.13083       -1.05194
H         -4.26019        0.73404       -0.83411
H         -4.23489       -0.52670       -1.86583
C         -2.30362        0.96590        0.22750
C         -3.15531        2.03978        0.67037
N         -3.75530        2.15179        1.63842
C         -0.99746        1.31698        0.50569
C          0.20080        0.54446        0.28193
C          1.34290        1.32795        0.32597
H          1.23681        2.40683        0.41265
H         -0.81336        2.31242        0.90999
H         -2.63605       -2.03646       -1.52772
H          4.16389       -0.69800       -0.38719
