27
Coordinates from ORCA-job ./opt_b97-3c_parallel
N         -2.80267       -3.05053        1.63250
C         -2.53259       -2.05533        1.13845
C         -2.23132       -0.80523        0.50171
C         -3.42720        0.01173        0.35651
N         -3.62542        1.15281       -0.32968
C         -2.67484        1.90852       -0.86763
N         -1.43769        1.73511       -0.59464
C         -0.53190        0.86896       -0.32634
C         -0.85985       -0.42243        0.09176
C          0.05861       -1.56993        0.01746
C          1.35772       -1.56135       -0.47534
C          2.19377       -0.39385       -0.49889
C          3.53747       -0.33534       -1.01385
N          4.56976       -0.78411       -0.81917
C          1.94006        0.76982        0.15436
C          0.82925        1.34237       -0.38379
C          1.28069        2.64736       -0.79247
N          1.29485        3.76013       -0.52820
N          2.52392        1.07870        1.33165
H          3.46499        0.73556        1.51943
H          2.49180        2.04314        1.65913
N          1.70517       -2.56618       -0.78405
H          1.26059       -3.45482       -1.00690
H          2.70496       -2.74800       -0.70508
H         -0.38478       -2.54964        0.16793
H         -3.01785        2.80200       -1.41022
H         -4.48212       -0.17028        0.61161
