27
Coordinates from ORCA-job ./opt_b97-3c_parallel
N         -0.32436       -3.55240       -0.92637
C         -0.92204       -2.94093       -0.16670
C         -1.10852       -1.52167       -0.01872
C         -0.00713       -0.64894        0.33286
C          1.21974       -1.20998        0.59125
C          2.38594       -0.74652        0.05374
N          2.92604        0.50412       -0.19980
C          2.06720        1.53818        0.13527
N          0.86801        1.56569        0.63102
C         -0.15255        0.79446        0.40603
C         -1.25414        1.62254        0.27311
C         -2.61252        1.23158        0.01639
N         -3.34005        2.06284       -0.01527
H         -4.29343        1.80346       -0.26731
H         -3.40237        2.99275        0.39744
C         -3.10589       -0.02952       -0.21874
C         -2.43719       -1.22461       -0.25351
H         -3.09608       -2.05933       -0.49238
H         -4.17373       -0.11369       -0.41912
H         -1.12175        2.70130        0.38927
N          2.63757        2.44484       -0.12538
H          2.38988        3.27510       -0.66187
H          3.64391        2.49298        0.02950
N          3.31748       -1.23639       -0.27093
H          4.28775       -1.26868        0.04028
H          3.07423       -2.18648       -0.54970
H          1.28093       -1.98594        1.35276
