24
Coordinates from ORCA-job ./opt_b97-3c_parallel
N         -5.34991       -0.40041       -0.65473
C         -4.24579       -0.17018       -0.48149
C         -2.86880        0.11335       -0.21750
C         -2.40390        1.43162        0.06761
C         -1.16410        1.66794        0.55273
C          0.00057        1.12287        0.11164
N          0.80979        2.23851        0.02172
C          2.12474        2.17835       -0.19495
C          3.10186        1.22057       -0.24307
C          2.85645       -0.20514       -0.14633
N          3.90956       -0.57280       -0.15703
H          3.69653       -1.37253        0.43828
H          4.82011       -0.23052        0.14369
C          1.60091       -0.81459       -0.11900
C          1.77911       -2.25258       -0.15096
N          1.98029       -3.23689        0.39633
C          0.31263       -0.27981       -0.04365
N         -0.71520       -1.23737       -0.08048
C         -2.03795       -0.98604       -0.18106
H         -2.20181       -2.06707       -0.31259
H          4.12152        1.60261       -0.34944
H          2.48949        3.21438       -0.26596
H         -1.12165        2.25975        1.46708
H         -3.14276        2.22765        0.05700
