32
Coordinates from ORCA-job ./opt_b97-3c_parallel
N         -4.40185       -1.93085        1.41044
C         -3.62761       -1.25502        0.90760
C         -2.64137       -0.38936        0.31961
C         -2.94215        0.97814        0.00071
C         -2.07476        1.88589       -0.69614
C         -0.62976        1.75524       -0.72716
N         -0.36441        2.77713       -1.07415
H         -0.83998        3.42746       -1.69710
H          0.42075        2.39738       -1.60118
C          0.20096        0.69597       -0.35990
C          1.55347        1.14077       -0.06207
C          2.65014        0.38927        0.30741
C          3.64047        1.25783        0.88849
N          4.41683        1.93431        1.38442
C          2.94903       -0.98008       -0.00637
C          2.07893       -1.88988       -0.69755
C          0.63414       -1.75947       -0.72369
N          0.36723       -2.78260       -1.06610
H          0.84120       -3.43389       -1.68927
H         -0.41689       -2.40098       -1.59310
C         -0.19523       -0.69910       -0.35610
C         -1.54560       -1.14269       -0.04972
H         -1.66329       -2.21989        0.05949
H          2.54697       -2.83512       -1.01183
N          3.93895       -1.45094        0.15991
H          4.49314       -0.91367        0.82492
H          3.97943       -2.42170        0.46372
H          1.67174        2.21805        0.04100
H         -2.54413        2.82986       -1.01201
N         -3.93236        1.44828        0.16773
H         -3.98878        2.42393        0.45330
H         -4.47975        0.91485        0.84129
