27
Coordinates from ORCA-job ./opt_b97-3c_parallel
N         -4.09116       -1.88382       -0.82589
C         -3.20778       -1.22932       -0.50561
C         -2.10107       -0.38585       -0.14960
C         -0.93618       -1.12584       -0.16750
C          0.43682       -0.71541        0.05976
C          1.21766       -1.85583        0.20150
C          2.62470       -1.99058        0.40492
C          3.57913       -1.03349        0.22511
C          3.43092        0.27305       -0.14307
C          2.27739        1.04302       -0.23277
N          2.69509        2.03956       -0.49752
H          3.44229        2.09109       -1.18764
H          1.82707        2.16290       -1.01528
C          0.88588        0.67006        0.02685
C          0.09056        1.79829        0.21258
C         -1.29696        1.93242        0.52890
C         -2.31638        0.94545        0.33711
N         -3.29469        1.42934        0.52629
H         -3.42631        1.89052        1.42494
H         -3.99041        0.68700        0.47578
H         -1.59636        2.94427        0.80512
H          0.55846        2.77596        0.27376
H          4.41439        0.72941       -0.31100
H          4.60357       -1.37517        0.33582
H          2.95330       -3.00048        0.63064
H          0.73743       -2.82751        0.27473
H         -1.06696       -2.18641       -0.37875
