28
Coordinates from ORCA-job ./opt_b97-3c_parallel
N          4.76379        1.05031       -0.50711
C          3.74122        0.53854       -0.49638
C          2.45289       -0.08770       -0.44377
C          2.40062       -1.50578       -0.55077
C          1.23984       -2.32404       -0.51990
C         -0.11931       -1.87398       -0.29366
N         -0.60665       -2.87532       -0.30478
H         -0.47000       -3.16693       -1.27462
H         -0.24230       -3.63563        0.27238
C         -0.67650       -0.60197       -0.12300
C         -2.10161       -0.74866        0.15761
N         -3.11681        0.11070        0.34183
C         -3.05614        1.48535        0.26495
C         -1.98994        2.30210        0.02684
C         -0.66203        1.92620       -0.15519
N         -0.24535        2.94948       -0.27269
H          0.34502        2.93186       -1.10385
H         -0.16075        3.88954        0.11441
C         -0.00160        0.69124       -0.20221
C          1.44658        0.84966       -0.33456
H          1.81866        1.87172       -0.32232
H         -2.31826        3.35378        0.02148
H         -4.02707        1.98151        0.41772
N         -3.02947       -1.32979        0.33536
H         -2.36715       -2.00583       -0.04701
H         -3.59533       -1.84528        1.00832
H          1.48925       -3.38565       -0.64170
H          3.34765       -2.02465       -0.67725
