26
Coordinates from ORCA-job ./opt_b97-3c_parallel
N         -3.63438       -0.56301       -0.34932
C         -2.61728       -0.37013        0.03307
N         -2.02403       -1.57106       -0.28249
C         -0.70171       -1.64031       -0.03350
C          0.32118       -0.71246        0.13617
C          1.63453       -1.30476        0.23936
N          2.01410       -2.34508        0.26015
H          2.90699       -2.71737       -0.06434
H          1.89718       -2.67510        1.21647
C          2.78478       -0.62919        0.51246
C          3.04943        0.42256       -0.30036
N          2.42465        1.60246       -0.61603
C          1.13135        1.66385       -0.26169
C          0.15502        0.74301        0.09293
C         -1.13969        1.33554        0.32056
N         -1.60678        2.34116        0.32957
H         -0.70472        2.80614        0.21117
H         -2.21187        3.02840        0.77867
C         -2.21675        0.66560        0.81614
H         -2.37702        0.60964        1.89488
H          1.34209        2.72220       -0.47579
H          4.05357        0.61694       -0.70590
H          3.21164       -0.63595        1.51608
H         -0.59345       -2.73019       -0.14598
H         -4.18591       -1.20662       -0.91497
H         -3.91818        0.37727       -0.62568
