28
Coordinates from ORCA-job ./opt_b97-3c_parallel
N         -4.94350       -0.83324        1.01842
C         -3.96157       -0.37936        0.65185
C         -2.71979        0.20375        0.23161
C         -1.74552       -0.73636       -0.02543
C         -0.37159       -0.65411       -0.25725
C          0.22712       -1.89208       -0.52375
N         -0.23165       -2.87134       -0.78317
H          0.10456       -3.62702       -1.37600
H         -0.97641       -2.41045       -1.30205
C          1.61234       -2.33249       -0.50646
C          2.68775       -1.61037       -0.07225
C          2.73610       -0.21362        0.19623
C          3.98615        0.36479        0.59034
N          4.97644        0.81879        0.93871
C          1.74691        0.71971       -0.01526
C          0.37699        0.59914       -0.23702
C         -0.20824        1.90476       -0.54322
N          0.25037        2.88006       -0.80977
H          0.95589        2.35192       -1.31918
H         -0.06623        3.61519       -1.43972
C         -1.59127        2.34322       -0.52498
C         -2.69219        1.60374       -0.01381
H         -3.62337        2.14691        0.11289
H         -1.86955        3.38036       -0.74858
H          2.11614        1.73592        0.09857
H          3.63584       -2.12964        0.03400
H          1.87980       -3.37178       -0.73297
H         -2.13198       -1.74834        0.07207
