26
Coordinates from ORCA-job ./opt_b97-3c_parallel
N         -4.83642       -1.17261        0.40375
C         -3.73336       -0.89499        0.29348
C         -2.35621       -0.51314        0.12705
C         -1.69933       -1.70986        0.08774
N         -0.44059       -2.11223       -0.05597
C          0.61412       -1.23581       -0.18259
C          1.61749       -2.11813       -0.41779
C          2.72654       -2.10698        0.35788
C          3.56912       -0.95629        0.42562
C          3.15212        0.25766       -0.08859
N          1.95796        0.82404       -0.37949
C          0.69926        0.20667       -0.23226
C         -0.40794        1.16470       -0.17966
C         -0.08350        2.57078       -0.27767
N          0.22351        3.66873       -0.35225
C         -1.81422        0.82206        0.00164
N         -2.60845        1.59864        0.06446
H         -3.60616        1.39537        0.00061
H         -2.53697        2.56594        0.37871
N          3.59637        1.25512       -0.25771
H          3.45503        2.22632       -0.53926
H          4.60624        1.11506       -0.24867
H          4.56501       -1.09331        0.83804
H          3.11268       -3.03103        0.77867
H          1.62162       -2.70696       -1.33535
H         -1.90424       -2.79083        0.14157
