30
Coordinates from ORCA-job ./opt_b97-3c_parallel
N         -4.97541       -0.98197        0.47167
C         -3.88773       -0.67650        0.30163
C         -2.49716       -0.36074        0.09012
C         -1.91116        0.96249        0.17501
N         -2.64416        1.74976        0.45655
H         -2.41067        2.73709        0.57443
H         -3.63484        1.68133        0.69695
C         -0.53656        1.32901       -0.15334
C         -0.17479        2.72643       -0.11837
N          0.17951        3.81123       -0.08446
C          0.54751        0.40841       -0.48279
C          1.76415        0.94785       -0.83882
C          2.90202        0.82253       -0.08860
N          3.46954       -0.33723        0.43407
C          2.77204       -1.51129        0.15883
N          3.48018       -2.16853        0.70421
H          3.40661       -2.62156        1.61954
H          4.37443       -2.50113        0.33182
C          1.62464       -1.82021       -0.53221
C          0.49879       -1.04000       -0.40683
N         -0.57213       -1.92229       -0.30244
C         -1.85149       -1.55404       -0.14828
N         -1.94981       -2.65741       -0.26046
H         -2.16598       -3.27787       -1.04469
H         -2.75733       -2.75361        0.36219
H          1.67419       -2.56684       -1.32606
N          3.47751        1.74626        0.12368
H          3.11916        2.67033        0.38274
H          4.46781        1.91084       -0.07671
H          1.84581        1.39373       -1.83189
