27
Coordinates from ORCA-job ./opt_b97-3c_parallel
N         -4.67537       -2.12899        0.86543
C         -3.88485       -1.36216        0.56183
C         -2.86531       -0.41723        0.21733
C         -3.38124        0.83961        0.02797
C         -2.71723        1.98362       -0.31257
C         -1.37900        2.23492       -0.46443
C         -0.26629        1.32254       -0.33658
C          0.90053        2.03765       -0.48614
N          2.07127        1.81483        0.20649
C          2.53382        0.56446        0.54523
N          3.33858        1.14688        1.03332
H          4.02170        0.38835        1.04209
H          3.57696        1.74508        1.82456
C          2.17102       -0.62892       -0.16664
C          3.28655       -1.53200       -0.31859
N          4.20052       -2.20997       -0.41816
C          0.83677       -0.94615       -0.45783
N          0.71855       -1.98880       -0.83529
H         -0.17912       -2.10639       -1.30440
H          1.29675       -2.77245       -1.13981
C         -0.35052       -0.12271       -0.18857
C         -1.51347       -0.86069        0.04372
H         -1.44254       -1.93559        0.19091
H          1.10069        3.11396       -0.60591
H         -1.13788        3.27377       -0.67749
H         -3.35750        2.85159       -0.44309
H         -4.45712        0.96218        0.14362
