31
Coordinates from ORCA-job ./opt_b97-3c_parallel
N         -4.77170       -0.39395       -1.34669
C         -3.66560       -0.20810       -1.12301
C         -2.40931        0.04780       -0.44119
C         -2.18864        1.40593       -0.22671
N         -2.82899        2.28667       -0.46282
H         -3.78120        2.00520       -0.69227
H         -2.73094        3.25415       -0.76499
C         -1.04337        2.01272        0.43167
C          0.22971        1.45992        0.43136
C          1.19344        2.49531        0.74224
C          2.56473        2.45246        0.71259
C          3.42561        1.46970        0.13610
C          3.05474        0.24771       -0.39928
N          4.02720       -0.12165       -0.79634
H          5.00965        0.13430       -0.87327
H          3.93209       -1.03972       -1.22755
C          1.76330       -0.40193       -0.27668
C          1.82605       -1.71488       -0.88266
N          1.69573       -2.60652       -1.58704
C          0.55599        0.14241        0.16552
C         -0.35713       -0.84830        0.72270
C          0.16215       -1.89945        1.57607
N          0.59632       -2.70790        2.25788
C         -1.67490       -0.97172        0.28850
N         -2.26092       -1.91020        0.43255
H         -3.25878       -2.07906        0.31475
H         -1.85565       -2.77687        0.78291
H          4.46259        1.82312        0.13679
H          3.09234        3.34087        1.04623
H          0.80877        3.45731        1.06782
H         -1.13307        3.07427        0.68280
