26
Coordinates from ORCA-job ./opt_b97-3c_parallel
N          4.24181        2.77307        0.11810
C          3.52496        1.89688       -0.00794
C          2.62715        0.78530       -0.11374
C          3.18382       -0.52869       -0.18185
N          2.51966       -1.73520       -0.30742
C          1.18532       -1.84511       -0.24149
C          0.08919       -1.01148       -0.08258
C         -1.09113       -1.82126        0.10487
N         -2.40176       -1.50567        0.41483
C         -2.97873       -0.25651        0.41360
C         -2.40822        0.92997        0.01224
C         -3.31949        2.03535       -0.11395
N         -4.12242        2.04168       -0.92855
C         -1.01888        1.25358       -0.18975
C          0.11307        0.44326       -0.12690
C          1.29799        1.17156       -0.15597
H          1.17039        2.25395       -0.15889
H         -0.86309        2.31321       -0.38648
N         -3.90970       -0.77863        0.70758
H         -4.36418       -1.00757        1.59431
H         -4.58546       -0.19947        0.20243
H         -1.45846       -2.85497        0.20408
N          1.55275       -2.89179       -0.33227
H          1.52546       -3.19943       -1.30750
H          2.06411       -3.62769        0.16153
H          4.28288       -0.61446       -0.17395
