25
Coordinates from ORCA-job ./opt_b97-3c_parallel
N         -5.57280        0.59294        0.23906
C         -4.43402        0.49223        0.24145
C         -3.01482        0.34057        0.20772
C         -2.39647       -0.88968        0.58356
N         -1.05946       -1.22652        0.49936
C          0.02740       -0.44471        0.12951
C         -0.01270        0.95869       -0.21307
N         -1.07704        1.82565       -0.38043
C         -2.35378        1.46749       -0.20406
H         -2.83764        2.41373       -0.49381
C          1.02382        1.72502       -0.63477
C          2.18931        1.60631        0.04508
N          3.05897        0.53776        0.15516
C          2.59997       -0.72310       -0.03917
C          1.21269       -1.18299        0.07364
C          1.33790       -2.61242        0.19422
N          1.86978       -3.52278       -0.24566
N          3.68417       -0.96921       -0.08357
H          3.38847       -1.91553       -0.34075
H          4.70381       -1.00126       -0.13621
N          2.78530        2.48490        0.35993
H          2.16540        3.22858        0.68841
H          3.73045        2.84243        0.51249
H          1.00494        2.20479       -1.61518
H         -3.03389       -1.72337        0.91771
