26
Coordinates from ORCA-job ./opt_b97-3c_parallel
N         -0.18604       -2.47057       -2.01193
C          0.31650       -2.56790       -0.98855
C          0.62592       -1.28064       -0.42256
C          1.96618       -1.54104        0.05167
C          2.59020       -0.74240        0.95048
C          3.04219        0.27046        0.16805
N          4.12603        0.47791        0.13792
H          4.41229        1.41596        0.41443
H          4.89618       -0.14235        0.38717
C          2.18174        1.26691       -0.40223
C          0.74164        1.18431       -0.23784
N          0.21892        2.44619       -0.42821
C         -1.11383        2.60405       -0.27563
N         -2.36592        2.17611        0.01655
C         -2.47056        0.83299        0.29574
N         -3.53604        1.05811        0.50653
H         -4.28945        1.69603        0.76207
H         -3.87728        0.12229        0.73216
C         -1.46620       -0.21571        0.18873
C         -2.03577       -1.48691        0.53907
N         -2.53316       -2.46775        0.84701
C         -0.01342       -0.08170       -0.07865
H         -0.83081        3.63558       -0.53984
H          2.62938        2.18866       -0.77220
H          3.18542       -1.16536        1.75884
H          2.48939       -2.46460       -0.20373
