28
Coordinates from ORCA-job ./opt_b97-3c_parallel
N         -4.09524       -2.24922        0.47713
C         -3.15208       -1.64259        0.25705
C         -1.97371       -0.86279        0.01598
C         -2.23088        0.40075       -0.49531
C         -1.30998        1.53721       -0.42097
C         -2.14310        2.64228       -0.82734
N         -2.34826        3.46956       -1.58866
C         -0.03636        1.54560        0.15429
N          0.32999        2.55576        0.43508
H         -0.09251        3.41143        0.07900
H          1.32816        2.62284        0.24208
C          0.79148        0.35827        0.21940
C          2.07151        0.55743        0.88797
N          3.13833       -0.21966        0.59133
C          3.14084       -1.10449       -0.42323
N          2.40010       -1.54383       -1.39062
C          1.16476       -1.16202       -1.47445
C          0.43146       -0.81117       -0.37645
C         -0.64919       -1.37694        0.22509
N         -0.36661       -2.35464        0.66301
H          0.40490       -2.99165        0.85277
H         -1.20836       -2.79218        1.03385
H          1.12083       -2.22840       -1.74734
H          4.14487       -1.54999       -0.48629
N          2.90325        1.01347        1.45467
H          3.43418        0.74755        2.28234
H          1.95693        1.22116        1.76695
H         -3.25717        0.59364       -0.80942
