24
Coordinates from ORCA-job ./opt_b97-3c_parallel
N         -4.61977       -0.12094       -0.12094
C         -3.48388       -0.02294       -0.04585
C         -2.05129        0.05548        0.03346
C         -1.36674       -1.20328        0.11744
N         -0.04786       -1.42670        0.14397
C          1.00394       -0.60027        0.14187
N          2.02572       -1.39968        0.15261
C          3.29114       -1.38046       -0.12514
C          4.07216       -0.31021        0.19242
C          3.42399        0.88751        0.22418
N          2.21737        1.56154        0.21275
C          1.01317        0.84969        0.16053
C         -0.07663        1.69625        0.11821
C         -1.47676        1.32239        0.03303
N         -2.00405        2.29874       -0.02465
H         -1.74138        3.27912       -0.12396
H         -3.02113        2.27495       -0.10382
H          0.16949        2.76359        0.13169
H          4.09212        1.76088        0.28695
H          5.15445       -0.35688        0.08657
H          3.63518       -1.70170       -1.12047
N         -1.42100       -2.30571        0.15527
H         -1.28574       -3.23733        0.54622
H         -2.42424       -2.20493        0.00226
