25
Coordinates from ORCA-job ./opt_b97-3c_parallel
N          5.08380        0.25759       -0.21232
C          3.94560        0.27117       -0.13196
C          2.51724        0.22391       -0.03369
C          1.85094       -1.04214        0.06925
N          0.49425       -1.29909        0.17225
C         -0.56325       -0.39717        0.17888
C         -1.65076       -1.18715        0.42024
C         -2.88609       -0.92564       -0.07977
N         -3.67674        0.18544       -0.23140
C         -3.06839        1.36699       -0.01193
C         -1.76745        1.82624        0.13620
C         -0.53156        1.04820        0.11015
C          0.58730        1.86001        0.02952
C          1.97213        1.49035       -0.04512
H          2.64874        2.34074       -0.12136
H          0.44222        2.93728       -0.00410
H         -1.65297        2.90597        0.19177
H         -3.78758        2.20114       -0.05209
N         -3.76393       -1.55151       -0.33457
H         -3.90994       -2.15555       -1.14586
H         -4.65117       -1.57660        0.17413
H         -1.58857       -1.93681        1.21093
N          2.15082       -2.10712        0.11009
H          2.34714       -2.79930        0.83537
H          2.99632       -2.08186       -0.46459
