26
Coordinates from ORCA-job ./opt_b97-3c_parallel
N         -0.46999        2.09726       -2.39801
C         -0.60372        1.70198       -1.33583
C         -0.72204        1.15108       -0.01672
C          0.42167        0.40245        0.08062
N          1.71232        0.70440        0.15531
C          2.97009        0.22276        0.17629
C          3.16519       -1.13423        0.11499
C          2.14915       -2.02011       -0.12821
N          0.77029       -2.12945       -0.25005
C          0.10059       -0.92008       -0.10987
N         -0.98175       -1.78356       -0.26231
C         -2.22332       -1.18677       -0.06743
C         -2.75060       -0.00248        0.38623
C         -2.01962        1.11626        0.43355
N         -2.46684        2.27303        0.94955
H         -3.45689        2.40435        1.16558
H         -2.11138        3.17267        0.62220
H         -3.77253        0.02164        0.77068
N         -2.87605       -2.05214       -0.30228
H         -3.16636       -2.90358        0.18709
H         -3.60768       -1.90480       -1.00396
H          2.54246       -3.04286       -0.25247
H          4.14531       -1.53847        0.37084
N          3.71616        1.04258        0.18723
H          4.66389        0.88051        0.53976
H          3.77041        1.97196       -0.23900
