27
Coordinates from ORCA-job ./opt_b97-3c_parallel
N         -4.45460       -2.11226       -1.00604
C         -4.02676       -1.40070       -0.22110
C         -2.87298       -0.57329       -0.04211
C         -3.47665        0.70257        0.14302
N         -2.85397        1.86465        0.33019
C         -1.48790        2.04427        0.27676
C         -0.37154        1.24452        0.10439
C          0.72348        2.07119       -0.05911
C          2.04411        1.86885       -0.35831
C          2.74028        0.60529       -0.35725
N          3.75145        0.96855       -0.65699
H          4.31958        0.13757       -0.81438
H          3.86941        1.55570       -1.48077
C          2.22236       -0.61596        0.05522
C          3.32916       -1.55804        0.16646
N          4.18583       -2.30650        0.28375
C          0.81553       -0.97429        0.26287
N          0.77491       -2.05087        0.55159
H          1.50729       -2.66762        0.90014
H          0.13985       -1.88808        1.33113
C         -0.35939       -0.21227        0.12224
C         -1.55278       -0.93794        0.02965
H         -1.47560       -2.01645       -0.06335
H          2.57783        2.80253       -0.57268
H          0.49913        3.13688       -0.04386
H         -2.02054        3.00209        0.37627
H         -4.41011        1.28292        0.19894
