24
Coordinates from ORCA-job ./opt_b97-3c_parallel
N         -1.86716       -1.75645       -2.64530
C         -1.84089       -1.18221       -1.65914
C         -1.75564       -0.50061       -0.40349
C         -0.41379       -0.17456        0.02179
C          0.03680        1.18831       -0.18807
N          1.34393        1.60987       -0.36984
C          2.31501        0.65153       -0.17994
N          2.75628       -0.61128        0.16593
C          1.71046       -1.46156        0.47272
C          0.34867       -1.39948        0.39731
H         -0.24630       -2.31168        0.43294
N          2.32535       -2.34089        0.74283
H          1.89376       -3.22302        1.01812
H          3.32696       -2.46874        0.89092
N          3.17163        1.30114       -0.42218
H          4.06820        1.06082       -0.84095
H          3.06457        2.30746       -0.55404
N         -0.73290        2.33567       -0.09832
C         -2.06242        2.12305        0.20286
C         -3.06281        1.23568        0.47560
C         -2.90683       -0.05411        0.18223
H         -3.71255       -0.75531        0.39293
H         -3.98723        1.58572        0.93002
H         -2.30142        3.19747        0.21757
