29
Coordinates from ORCA-job ./opt_b97-3c_parallel
N         -0.44919       -4.09426       -0.52381
C         -0.04567       -3.03256       -0.40338
C          0.39943       -1.67872       -0.26012
C          1.65292       -1.43396       -0.80055
C          2.48659       -0.26748       -0.51573
C          3.77811       -0.60291       -1.06527
N          4.81757       -0.99291       -0.79893
C          2.17426        0.82594        0.29496
N          2.99286        1.49463        0.62717
H          3.95850        1.17841        0.52782
H          3.03889        2.41332        1.06719
C          0.82504        1.17985        0.67520
C          0.47645        2.30049        1.51103
N          0.16739        3.20476        2.13687
C         -0.29622        0.65311        0.11210
C         -1.08826        1.41551       -0.71018
C         -2.53641        1.41365       -0.73398
N         -3.34458        0.49814       -0.05594
C         -2.74973       -0.52630        0.65644
N         -1.55998       -0.95815        0.91884
C         -0.42666       -0.67633        0.35149
N         -3.50660       -1.19091        1.10693
H         -3.44214       -2.13041        1.49880
H         -4.49654       -0.94645        1.12534
N         -3.37351        1.95393       -1.20238
H         -2.94585        2.83693       -1.48033
H         -4.36987        2.04882       -1.39572
H         -0.62248        2.17741       -1.32903
H          2.11320       -2.25487       -1.35311
