25
Coordinates from ORCA-job ./opt_b97-3c_parallel
N         -4.91547       -1.06751        0.24676
C         -3.82751       -0.71642        0.24883
C         -2.46180       -0.26970        0.21096
C         -1.49691       -1.30065        0.35368
N         -0.12989       -1.25533        0.25685
C          0.77149       -0.21050        0.10679
C          2.04225       -0.77662       -0.00553
C          2.40564       -2.17533       -0.04918
N          2.63469       -3.24839       -0.37083
C          3.35300       -0.17551       -0.13323
C          3.65376        1.15607       -0.09168
C          2.75020        2.24499        0.04401
C          1.38086        2.22272        0.09587
C          0.42901        1.20825        0.09757
C         -0.86657        1.72842        0.07277
C         -2.15837        1.06962        0.06303
N         -2.92710        1.86595       -0.04688
H         -2.80804        2.73273       -0.56739
H         -3.81101        1.46337       -0.35478
H         -0.92828        2.81753        0.01809
H          1.00752        3.24091        0.14729
H          3.23781        3.21511        0.06596
H          4.69758        1.44609       -0.16146
H          4.23307       -0.81125       -0.24231
H         -1.56056       -2.39153        0.48158
