29
Coordinates from ORCA-job ./opt_b97-3c_parallel
N         -5.46814       -0.13945       -0.19379
C         -4.33286       -0.04224       -0.11621
C         -2.90032        0.03400       -0.02211
C         -2.24686       -1.14566        0.47628
N         -0.93564       -1.40678        0.50146
C          0.13229       -0.64497        0.24180
N          1.21617       -1.36452        0.32443
C          2.41609       -1.22790       -0.16676
N          2.31566       -2.12496       -0.81312
H          2.00795       -2.96846       -1.29585
H          3.23131       -1.89747       -1.20123
C          3.10454       -0.04394       -0.02127
C          4.20246       -0.00908       -0.18313
N          5.25506       -0.24042       -0.56805
C          2.54003        1.17629        0.27153
N          1.29445        1.41033       -0.03063
C          0.15619        0.77273       -0.00490
C         -0.89985        1.61381       -0.29491
C         -2.29885        1.23399       -0.38316
N         -2.79414        2.15432       -0.76097
H         -2.50772        3.02306       -1.21173
H         -3.78309        2.04017       -0.98517
H         -0.63190        2.65157       -0.52488
N          2.47525        1.97074        1.04182
H          2.12476        2.81777        1.48803
H          3.47465        1.93826        1.24052
N         -2.32636       -2.17895        0.85707
H         -3.33011       -1.99904        0.84395
H         -2.17495       -2.87598        1.58597
