24
Coordinates from ORCA-job ./opt_b97-3c_parallel
N         -0.74627       -3.19065       -1.84275
C         -0.92154       -2.21457       -1.27547
C         -1.09690       -0.97752       -0.58639
C          0.03805       -0.32816        0.02203
C          0.54036        1.02196       -0.07883
N          1.82964        1.32110       -0.32597
C          2.75339        0.34529       -0.35245
C          2.78022       -0.98930       -0.06292
C          1.99160       -1.45375        0.95429
C          0.58921       -1.14517        1.07912
H          0.01947       -1.56663        1.90335
H          2.41750       -2.09240        1.72169
H          3.63675       -1.58443       -0.37567
N          3.47774        1.11732       -0.65950
H          3.70349        1.75695       -1.42109
H          4.33617        0.60349       -0.46165
N         -0.30406        2.09482        0.15560
C         -1.63617        1.74357        0.27752
N         -2.67564        0.83569        0.18053
C         -2.41441       -0.44356       -0.31650
H         -3.36289       -0.94672       -0.56348
N         -2.25132        2.61085        0.58048
H         -3.26592        2.71358        0.51602
H         -1.92559        3.47726        1.01189
