30
Coordinates from ORCA-job ./opt_b97-3c_parallel
N         -3.54816       -1.22418       -1.84846
C         -3.27792       -1.28880       -0.74051
C         -2.16791       -0.55350       -0.18645
C         -0.85064       -1.03987        0.21283
N         -0.72820       -2.13161        0.05194
H         -1.57027       -2.69618        0.17599
H          0.02282       -2.80579       -0.09795
C          0.26250       -0.39021        0.70755
C          1.51672       -0.90968        0.94950
N          2.82722       -1.07089        0.51829
C          3.13908       -0.36177       -0.63390
N          2.46038        0.55773       -1.25211
C          1.57099        1.37878       -0.77709
C          0.39571        0.83544       -0.13065
C         -0.44820        1.77699        0.57675
N         -1.83554        1.82908        0.46744
C         -2.59526        0.76707       -0.03569
N         -3.41882        1.51029       -0.13170
H         -4.15318        2.17384        0.12795
H         -3.85744        0.92925       -0.85424
N         -0.37141        2.73860        1.12886
H          0.36746        2.90931        1.81634
H         -0.97524        3.56099        1.21791
H          2.06132        2.30471       -1.11668
N          4.14656       -0.52226       -1.05775
H          4.63892       -0.23325       -1.90420
H          4.67321       -1.32147       -0.70093
N          1.77069       -1.46163        1.87173
H          2.57904       -1.74128        2.42889
H          0.99328       -2.01979        2.22184
