27
Coordinates from ORCA-job ./opt_b97-3c_parallel
N         -2.54209       -3.14774       -0.14736
C         -1.59323       -2.51604       -0.05753
C         -0.43401       -1.67171        0.05261
C          0.72749       -2.33699        0.56036
C          2.08023       -1.91669        0.40966
C          2.50656       -0.64339       -0.12787
C          1.77096        0.53832       -0.18636
C          2.68848        1.61311       -0.50310
N          2.80448        2.17817       -1.49150
C          0.34990        0.75567        0.07316
C          0.00816        2.10595        0.24523
C         -1.28372        2.54472        0.69824
C         -2.29538        1.70774        1.04117
C         -2.52191        1.15637       -0.17837
N         -1.83964        0.07124       -0.68466
C         -0.65189       -0.30473       -0.12422
N         -3.32391        1.00593       -0.92565
H         -3.76716        0.28353       -1.49383
H         -3.85022        1.86161       -1.09876
H         -3.11772        2.05262        1.66595
H         -1.39215        3.61356        0.86311
H          0.72579        2.91799        0.19885
N          3.57693       -0.90946       -0.28450
H          4.05208       -0.17548       -0.80903
H          4.19082       -1.72265       -0.32046
H          2.78963       -2.72250        0.63707
H          0.60973       -3.37841        0.85142
