25
Coordinates from ORCA-job ./opt_b97-3c_parallel
N         -4.96504       -1.53232        0.36080
C         -3.86840       -1.23238        0.26703
C         -2.51208       -0.80000        0.14830
C         -1.64739       -1.84086       -0.07051
N         -0.33161       -1.98088       -0.26948
C          0.56269       -0.92546       -0.26561
C          1.71350       -1.53263       -0.65408
C          2.81665       -1.35155        0.10981
N          3.48079       -0.16092        0.28339
C          2.88330        1.05546       -0.04570
C          1.47781        1.42320       -0.15395
C          1.24188        2.83546       -0.21808
N          1.01097        3.95239       -0.26117
C          0.34721        0.49120       -0.07575
N         -0.88318        1.12558        0.12947
C         -2.15533        0.58504        0.23836
N         -2.63669        1.56949        0.39895
H         -3.62794        1.31826        0.39524
H         -2.61919        2.56255        0.63843
H          3.66223        1.83364        0.00757
N          3.62032       -2.00662        0.49596
H          4.64031       -1.95287        0.45199
H          3.42324       -2.92388        0.90092
H          1.80725       -1.95059       -1.65708
H         -1.87608       -2.91521       -0.16259
