29
Coordinates from ORCA-job ./opt_b97-3c_parallel
N         -5.23276       -0.85205       -0.54472
C         -4.12379       -0.63379       -0.38189
C         -2.72770       -0.41674       -0.15667
C         -1.98236       -1.38461        0.57454
N         -0.61872       -1.53875        0.54780
C          0.40668       -0.67071        0.17499
C          1.60399       -1.38081        0.03138
C          1.66440       -2.82888       -0.02347
N          1.21804       -3.83666       -0.33037
C          2.94108       -0.88257       -0.24114
C          3.41841        0.38565        0.04257
C          2.65360        1.48748        0.52608
C          1.27506        1.62853        0.44998
C          1.16545        2.99104        0.91456
N          0.64352        3.24424        1.90098
C          0.23381        0.77134        0.08936
C         -0.95962        1.36015       -0.35233
C         -1.20285        2.69620       -0.83715
N         -0.82146        3.12400       -1.82746
C         -2.26898        0.78697       -0.63176
H         -3.02851        1.39579       -1.13468
H          3.31816        2.30831        0.81274
H          4.48281        0.64847       -0.00335
N          3.89105       -1.39395       -0.51887
H          3.83308       -2.29406       -0.99413
H          4.87094       -1.11530       -0.56596
N         -2.07126       -2.37117        1.06650
H         -3.08206       -2.50424        1.11940
H         -1.66034       -3.19893        1.49967
