28
Coordinates from ORCA-job ./opt_b97-3c_parallel
N         -3.41805       -0.19388        1.91342
C         -2.65694        0.40229        1.30435
C         -1.65691        1.10235        0.54745
C         -1.77867        2.52837        0.61576
C         -1.09943        3.45787       -0.22356
C          0.06591        3.20485       -1.00334
C          0.92795        2.14247       -0.90673
C          0.73305        0.84402       -0.28250
C          1.90074        0.09291       -0.11125
C          3.22597        0.60769       -0.32434
N          4.29876        0.97152       -0.46575
C          1.88580       -1.13228        0.64468
N          1.14169       -2.21757        0.20941
C         -0.07401       -2.10905       -0.45024
N          0.15452       -3.18426       -0.64198
H          0.35512       -4.17168       -0.47217
H         -0.66914       -3.19647       -1.25063
C         -0.92311       -1.01114       -0.38024
C         -2.15527       -1.62328       -0.81789
N         -2.67470       -2.17544       -1.67498
C         -0.58845        0.34304        0.06423
N          2.60029       -1.85668        1.09025
H          2.89286       -2.62795        1.69350
H          3.37588       -1.19083        1.13296
H          1.87528        2.34266       -1.39556
H          0.40125        4.07143       -1.56699
H         -1.49890        4.46783       -0.25613
H         -2.63631        2.92883        1.15200
