22
Coordinates from ORCA-job ./opt_b97-3c_parallel
N         -0.66003       -3.61669       -0.74374
C         -0.18039       -2.61507       -0.48053
C          0.41249       -1.36693       -0.09789
C         -0.54163       -0.40917        0.15219
N         -1.56800       -0.37683        0.59165
C         -2.60526        0.02198        0.51891
C         -2.94632        1.20930       -0.07414
C         -1.98934        2.16370       -0.30176
N         -0.59844        2.13979       -0.29373
C         -0.07639        0.86872       -0.06242
N          1.11713        1.57325       -0.09961
C          2.22727        0.74980       -0.00988
C          2.63847       -0.55779        0.00828
C          1.77056       -1.57090       -0.04311
H          2.18210       -2.58258       -0.04367
H          3.70240       -0.79504        0.03274
N          2.94953        1.58704        0.06786
H          3.01093        2.52807        0.46198
H          3.92054        1.28604       -0.03389
H         -2.56627        3.08581       -0.47692
H         -3.95231        1.34231       -0.47041
H         -3.41903       -0.35921        1.15570
