32
Coordinates from ORCA-job ./opt_b97-3c_parallel
N         -5.42963       -0.74803       -1.15120
C         -4.34926       -0.57510       -0.82519
C         -2.99220       -0.37937       -0.37651
C         -2.31251       -1.55609       -0.63121
C         -0.99654       -1.85618       -0.11841
C         -0.90541       -3.29123       -0.20273
N         -0.20895       -4.14580       -0.50129
C          0.00812       -0.93653        0.14383
N          1.12557       -1.59185        0.64508
C          2.41120       -1.12296        0.79936
N          2.66769       -2.02257        1.39505
H          3.67270       -1.86192        1.48147
H          2.49909       -2.92784        1.83386
C          3.05548       -0.15603       -0.04015
C          4.48515       -0.29972       -0.15069
N          5.61399       -0.45939       -0.21351
C          2.32368        0.91469       -0.70174
N          2.95451        1.59774       -1.31350
H          3.94029        1.59014       -1.57646
H          2.57894        2.47309       -1.68561
C          0.95208        1.29407       -0.37852
C          0.44096        2.53261       -0.92988
N          0.05328        3.50152       -1.39511
C         -0.05906        0.44268        0.09848
C         -1.22451        1.06292        0.72357
C         -0.94173        2.15025        1.63815
N         -0.68515        3.04451        2.29867
C         -2.54921        0.69100        0.49701
N         -3.38870        1.31480        0.87863
H         -4.38460        1.19059        0.69228
H         -3.29416        2.23925        1.29813
H         -2.86696       -2.37473       -1.09977
