29
Coordinates from ORCA-job ./opt_b97-3c_parallel
N         -5.14182       -0.04179       -0.26845
C         -4.00751        0.04016       -0.16129
C         -2.57773        0.07924       -0.01983
C         -1.95211       -1.16907        0.30552
N         -0.60799       -1.48292        0.34281
C          0.52172       -0.68621        0.19777
C          0.54382        0.78010        0.16409
N          1.69588        1.54894        0.38337
C          2.97151        1.08331        0.15947
C          3.41326        0.06546       -0.61660
C          2.96628       -1.11751       -0.12680
C          1.63529       -1.52305        0.23060
H          1.50256       -2.58513        0.43791
N          3.81518       -1.82248       -0.15764
H          4.83558       -1.80082       -0.19438
H          3.56052       -2.77457       -0.42443
H          3.57780        0.20931       -1.68571
N          3.63487        1.89647        0.50886
H          4.56276        1.52887        0.72788
H          3.68749        2.89518        0.71765
C         -0.53976        1.63650        0.04706
C         -1.94059        1.30590       -0.13977
N         -2.42937        2.28323       -0.34655
H         -3.43716        2.24450       -0.50914
H         -2.16073        3.23883       -0.58433
H         -0.28277        2.70263        0.02959
N         -2.19647       -2.23274        0.49981
H         -2.12942       -3.01174        1.15732
H         -3.15585       -2.27158        0.14726
