29
Coordinates from ORCA-job ./opt_b97-3c_parallel
N         -4.71530       -1.65154        0.64247
C         -3.83734       -1.00064        0.31180
C         -2.69868       -0.23014       -0.08119
C         -2.77308        1.19207       -0.17952
C         -1.83022        1.89144       -0.85412
C         -0.61636        1.93246       -0.25035
N         -0.57517        3.03451       -0.13759
H          0.04545        3.62097       -0.69517
H         -1.36380        3.63231        0.11371
C          0.25514        0.79299       -0.10189
C          1.56801        1.24406        0.33114
N          2.70820        0.48846        0.52878
C          2.64036       -0.81818        0.14847
N          1.97288       -1.88971       -0.37699
C          0.62528       -1.73594       -0.65961
N          0.69512       -2.81105       -0.93224
H          1.15873       -3.58914       -1.40636
H         -0.29246       -2.92757       -1.16542
C         -0.22104       -0.57015       -0.41656
C         -1.56601       -0.96130       -0.40658
H         -1.75426       -2.02867       -0.50124
N          3.66225       -1.14114        0.42432
H          4.31586       -1.89017        0.19425
H          4.10151       -0.63866        1.19829
N          2.30883        1.99962        0.65305
H          3.07230        2.64808        0.84396
H          1.45058        2.54742        0.73222
H         -1.93051        2.02377       -1.93284
H         -3.70410        1.66809        0.11362
