25
Coordinates from ORCA-job ./opt_b97-3c_parallel
N         -5.03109       -0.28273       -0.29083
C         -3.88216       -0.23624       -0.25471
C         -2.45037       -0.14405       -0.22918
C         -1.87359       -1.33998       -0.61982
C         -0.50440       -1.75511       -0.41460
C          0.59650       -1.00475       -0.03128
N          1.70589       -1.82308        0.17050
C          2.88534       -1.26119        0.58910
C          3.59979       -0.15750        0.91150
C          3.03918        0.73590        0.04796
N          1.77316        1.20308       -0.25439
C          0.62488        0.45213        0.04393
C         -0.43970        1.29304       -0.09903
C         -1.73609        1.02093        0.22104
N         -2.24472        1.90475        0.65636
H         -3.23752        1.67507        0.69041
H         -2.14889        2.79569        1.14197
H         -0.21227        2.34385       -0.31374
N          3.59286        1.48376       -0.55514
H          3.37439        2.17878       -1.26952
H          4.53726        1.16445       -0.77641
H          4.67058       -0.20419        1.09546
H          3.42165       -2.20346        0.78245
H         -0.34558       -2.81492       -0.59882
H         -2.52625       -2.13775       -0.96745
