25
Coordinates from ORCA-job ./opt_b97-3c_parallel
N         -1.52785       -3.74344       -0.36205
C         -1.42323       -2.60928       -0.27419
C         -1.24622       -1.18725       -0.17497
C         -2.36383       -0.50820       -0.64421
C         -2.69360        0.89354       -0.46402
C         -1.98355        1.84282        0.25648
C         -0.61685        1.71659        0.66914
C          0.19582        0.76306        0.16073
C         -0.02453       -0.55993        0.26575
N          0.88561       -1.40749        0.76907
C          2.16915       -1.11307        1.04350
N          3.00455       -0.12393        0.51894
C          2.60285        0.92064       -0.31179
C          1.23194        1.28189       -0.54630
H          1.05750        2.09418       -1.24733
N          3.59239        1.27549       -0.64897
H          4.50664        0.84846       -0.79620
H          3.68274        2.24471       -0.95280
H          2.57714       -1.98065        1.58583
H         -0.19221        2.52231        1.26677
N         -2.45487        2.80678        0.51177
H         -3.46140        2.72953        0.37069
H         -2.29361        3.73756        0.89369
H         -3.68443        1.16457       -0.82303
H         -3.16296       -1.08767       -1.10180
