27
Coordinates from ORCA-job ./opt_b97-3c_parallel
N         -0.65628       -3.90191        0.98172
C         -0.61444       -2.78620        0.73965
C         -0.52880       -1.38433        0.47073
C         -1.71538       -0.85603        0.89028
C         -2.40707        0.01682        0.09894
C         -3.78282       -0.34943       -0.01353
N         -4.89053       -0.60803       -0.10608
C         -1.91462        1.27584       -0.41408
N         -0.60672        1.60484       -0.32433
C          0.35516        0.71633       -0.01771
N          1.23470        1.67626        0.01550
C          2.53154        1.65334        0.11536
C          3.37347        0.61949       -0.20047
C          2.92140       -0.65827       -0.39186
N          1.74738       -1.10700       -0.06395
C          0.56474       -0.62564        0.16757
N          3.06822       -1.34570       -1.24047
H          4.01520       -1.19623       -1.58710
H          2.84591       -2.32058       -1.44042
H          4.44038        0.81711       -0.29135
N          2.66459        2.38801        0.92765
H          3.59029        2.20514        1.31387
H          2.40421        3.32210        1.24302
N         -2.13025        2.22451       -0.93294
H         -2.04664        2.95024       -1.64407
H         -3.12838        2.09960       -0.76860
H         -2.00692       -0.96034        1.93593
