24
Coordinates from ORCA-job ./opt_b97-3c_parallel
N         -0.14500       -2.32102        2.38140
C         -0.42390       -1.73151        1.44462
C         -0.72098       -0.97515        0.26094
C         -2.00619       -0.63692       -0.08714
C         -2.39661        0.64084       -0.14742
C         -1.53134        1.66215        0.14128
N         -0.23041        1.90219        0.36420
C          0.60741        0.85999        0.25129
N          1.70189        1.49913        0.55452
C          2.90544        1.11589        0.23884
C          3.28667        0.01752       -0.48895
C          2.36265       -0.88435       -0.95277
N          1.25421       -0.88498       -0.83346
C          0.47435       -0.44964       -0.15986
H          2.83132       -1.66822       -1.56874
H          4.34464       -0.15754       -0.67239
H          3.65077        1.45865        0.97264
N         -1.71251        2.74231        0.27327
H         -1.36583        3.67116        0.03500
H         -2.72899        2.81613        0.29342
H         -3.42513        0.87473       -0.41897
N         -2.83004       -1.66778       -0.34381
H         -3.70970       -1.54224       -0.84348
H         -2.47719       -2.60791       -0.52217
