30
Coordinates from ORCA-job ./opt_b97-3c_parallel
N          5.57693        0.19954        0.01730
C          4.43669        0.23053        0.02135
C          3.00616        0.20231        0.01328
C          2.26453        1.25250        0.63346
C          0.84757        1.49091        0.52460
C          0.44080        2.68807        1.20581
N          0.07088        3.61344        1.76059
C         -0.16559        0.56997       -0.01199
C          0.04941       -0.85825       -0.19950
N          1.25662       -1.49415       -0.51361
C          2.47970       -0.94869       -0.51516
N          2.78255       -1.91156       -0.98166
H          3.77296       -1.80358       -0.74350
H          2.78473       -2.63298       -1.70669
C         -1.02235       -1.83070       -0.05602
C         -0.81419       -3.25328       -0.06405
N         -0.67293       -4.38548       -0.04409
C         -2.33058       -1.59938        0.33066
N         -3.15299       -0.54858        0.18617
C         -2.74206        0.65217       -0.38061
C         -1.40951        1.22002       -0.45762
C         -1.37098        2.50938       -1.09152
N         -1.37927        3.51923       -1.62402
N         -3.77514        1.01182       -0.58827
H         -3.65320        1.99428       -0.85439
H         -4.78322        0.86420       -0.68755
N         -3.29741       -2.05829        0.65268
H         -3.02338       -3.03710        0.78456
H         -4.24335       -2.02904        1.04580
H          2.85882        2.03454        1.10489
