28
Coordinates from ORCA-job ./opt_b97-3c_parallel
N         -0.63055       -4.05023        0.03164
C         -0.19816       -2.99344        0.02208
C          0.27316       -1.62605        0.01423
C          1.70456       -1.56256        0.10637
C          2.58212       -0.42989        0.00059
C          3.96729       -0.85105        0.01136
N          5.05235       -1.20808        0.04242
C          2.21081        0.91771       -0.10602
N          3.08116        1.60638       -0.24208
H          3.09252        2.41482       -0.86446
H          4.06096        1.39096       -0.05317
C          0.87737        1.51769        0.01065
C          0.86298        2.97857       -0.00997
N          0.53847        3.83479       -0.69295
C         -0.34857        0.84003        0.08134
N         -1.43640        1.73632        0.28145
C         -2.77687        1.38051        0.29094
N         -3.70010        0.36258        0.11306
C         -3.11511       -0.85964       -0.17615
N         -1.82326       -0.96114       -0.15022
C         -0.59919       -0.53254       -0.01815
N         -3.60721       -1.81754       -0.42224
H         -3.30445       -2.79397       -0.42321
H         -4.53113       -1.82353       -0.85794
N         -3.15216        2.39171        0.53203
H         -2.70441        3.30898        0.58653
H         -4.11314        2.54878        0.84042
H          2.20461       -2.52792        0.18389
