28
Coordinates from ORCA-job ./opt_b97-3c_parallel
N         -5.17380       -0.82415        0.15043
C         -4.05449       -0.59955        0.12200
C         -2.63618       -0.35561        0.07243
C         -1.82527       -1.47638        0.40913
C         -0.41213       -1.63883        0.23116
C         -0.01635       -3.01643        0.39489
N          0.34515       -4.09285        0.51994
C          0.59401       -0.59406        0.00957
N          1.82864       -1.22212       -0.19156
C          3.04395       -0.68323       -0.26030
N          3.49182       -1.66577       -0.49556
H          3.25848       -2.64325       -0.67585
H          4.47324       -1.56651       -0.75409
C          3.58047        0.54231       -0.00508
C          2.80640        1.69852        0.28290
C          1.41741        1.77809        0.19841
C          1.32165        3.20202        0.42871
N          0.99557        4.02953        1.14583
C          0.37510        0.85486        0.00792
C         -0.86108        1.45558       -0.22814
C         -2.19144        0.89331       -0.31040
N         -2.85759        1.72984       -0.61611
H         -2.80216        2.70558       -0.90524
H         -3.83887        1.46687       -0.70727
H         -0.83039        2.52797       -0.42606
H          3.46456        2.55110        0.48369
H          4.65837        0.68243       -0.00848
H         -2.37844       -2.37814        0.66849
