26
Coordinates from ORCA-job ./opt_b97-3c_parallel
N          3.39526        1.24024       -1.88371
C          3.29122        0.31613       -1.21310
C          2.10282        0.18022       -0.41816
C          2.18003       -1.16465       -0.75772
N          1.55615       -2.24832       -0.15292
C          0.54976       -2.07669        0.76605
C         -0.44990       -1.06224        0.66019
C         -1.72306       -1.71030        0.44400
N         -2.76869       -1.21993       -0.32223
C         -2.86138        0.15333       -0.37011
N         -2.38453        1.37258        0.07373
C         -1.17529        1.33723        0.75416
N         -1.30641        2.36056        1.16158
H         -0.33942        2.68701        1.07882
H         -1.67108        2.83136        1.99274
C         -0.16039        0.29832        0.63937
C          1.20274        0.78936        0.54458
N          1.58078        1.82551        0.65255
H          2.49992        1.81973        1.09760
H          1.73507        2.20948       -0.28243
N         -3.77755        0.29452       -0.97183
H         -4.06074       -0.37478       -1.68942
H         -4.48452        1.03065       -0.99873
H         -1.98985       -2.75442        0.21670
H          0.69980       -3.16796        0.75122
H          2.54309       -2.09411       -1.22881
