25
Coordinates from ORCA-job ./opt_b97-3c_parallel
N          4.18188        1.14267        0.33901
C          3.22895        0.52769        0.20701
C          1.99546       -0.18940        0.05851
C          2.19551       -1.60479       -0.01858
N          1.93828       -2.66786       -0.11461
C          0.84208       -2.63021       -0.06745
C         -0.43183       -1.98529       -0.00069
C         -1.57767       -2.85074        0.02373
N         -2.52084       -3.49493        0.03883
C         -0.51404       -0.58330        0.01081
N         -1.78820       -0.13281        0.08096
C         -2.06444        1.19376        0.05263
N         -1.74024        2.50841       -0.04002
C         -0.38909        2.73593       -0.15761
N         -0.32765        3.83943       -0.25372
H          0.62570        4.20985       -0.23902
H         -0.90898        4.64580       -0.49376
C          0.66983        1.74292       -0.10236
C          0.68175        0.33019       -0.01296
H          1.61260        2.27304       -0.17579
N         -3.15343        1.03356        0.17051
H         -3.84269        1.77776        0.28458
H         -3.68417        0.16932        0.30270
H          0.89144       -3.73250       -0.09494
H          3.20978       -2.03866        0.02947
