24
Coordinates from ORCA-job ./opt_b97-3c_parallel
N         -5.60571       -0.69477        0.78967
C         -4.53784       -0.44107        0.47412
C         -3.20218       -0.09215        0.10965
C         -2.63660        1.16419        0.48385
N         -1.39257        1.52218        0.10471
C         -0.28711        0.81204       -0.23679
N          0.76328        1.66647       -0.50162
C          2.10685        1.39477       -0.62416
C          2.84261        0.24005       -0.21448
C          4.26918        0.40106       -0.19659
N          5.40008        0.56411       -0.16374
C          2.30403       -0.99142        0.12366
N          2.86919       -1.89862        0.42543
H          3.84652       -1.69939        0.64096
H          2.70250       -2.84987        0.75279
C          0.92411       -1.42714        0.04091
C         -0.20175       -0.64256       -0.14797
C         -1.40757       -1.43164       -0.26748
C         -2.57379       -0.93249       -0.74244
H         -3.10105       -1.41162       -1.56637
H         -1.32926       -2.51055       -0.16318
H          0.73631       -2.49551        0.18029
H          2.58821        2.34910       -0.88770
H         -3.33333        1.85591        0.98229
