31
Coordinates from ORCA-job ./opt_b97-3c_parallel
N         -5.61794        0.01868       -0.09617
C         -4.47686        0.03095       -0.07653
C         -3.04219        0.00130       -0.06354
C         -2.36125        0.82415        0.84174
N         -2.75136        1.51018        1.61816
H         -3.73457        1.35114        1.84094
H         -2.58844        2.50476        1.77675
C         -0.91575        0.98106        0.95943
C         -0.09371        0.45040       -0.10279
C          0.05109       -0.94507       -0.41984
N          0.94039       -1.81557        0.09287
C          2.13740       -1.49589        0.63031
C          2.76368       -0.21096        0.41285
C          4.02697        0.07116        1.02286
N          5.05039        0.25832        1.49446
C          2.33019        0.74621       -0.46642
C          1.04991        1.21652       -0.52885
C          0.50475        2.39312       -1.13999
N          0.03499        3.32038       -1.61315
N          3.02984        0.97402       -1.59454
H          2.85323        1.82322       -2.13314
H          4.04129        0.83715       -1.59826
N          2.13748       -2.50194        1.08252
H          1.85068       -3.35843        1.55524
H          3.14521       -2.42455        1.21813
N         -1.09952       -1.13617       -0.97399
C         -2.37865       -0.94807       -0.92601
N         -2.50915       -1.74379       -1.68011
H         -3.51709       -1.61597       -1.59077
H         -2.37901       -2.63764       -2.15269
H         -0.46750        1.62590        1.71877
