34
Coordinates from ORCA-job ./opt_b97-3c_parallel
N         -3.29395       -2.77514       -1.57049
C         -2.55714       -2.02584       -1.12120
C         -1.63511       -1.08000       -0.51544
C         -2.16564        0.00180        0.30220
N         -3.22884       -0.05174        0.63183
H         -3.80441       -0.88993        0.56782
H         -3.77338        0.64258        1.14073
C         -1.40376        1.20728        0.59700
C         -2.01948        2.26278        1.37753
N         -2.52047        3.10458        1.96696
C         -0.33891        1.50873       -0.34588
N         -0.21592        2.58026       -0.62065
H         -0.78569        3.36322       -0.30413
H          0.75698        2.85127       -0.48024
C          0.86975        0.70753       -0.20257
C          1.99994        1.05012       -1.05136
N          2.14563        1.73475       -1.91346
H          1.15595        1.83866       -2.13294
H          2.65116        1.81936       -2.79330
C          3.31693        0.88256       -0.63961
C          3.70422        0.31517        0.62001
C          3.02590       -0.63629        1.34675
C          1.82578       -1.31879        0.91213
N          1.84564       -2.28239        1.46189
H          0.86800       -2.56792        1.43178
H          2.29685       -2.84476        2.18054
C          0.77270       -0.68983        0.12156
C         -0.29326       -1.44957       -0.37214
N          0.03731       -2.45892       -0.71511
H         -0.41882       -3.10056       -1.36164
H          1.02975       -2.69130       -0.71825
H          3.59597       -1.06884        2.17180
H          4.72236        0.52377        0.93244
H          4.16120        1.34619       -1.16317
