28
Coordinates from ORCA-job ./opt_b97-3c_parallel
N          5.64536        0.93338        0.00419
C          4.52888        0.68809       -0.01730
C          3.13133        0.34530       -0.02368
C          2.66936       -1.01108        0.03230
C          1.30621       -1.47601       -0.00328
C          0.06736       -0.71579       -0.04200
C         -1.01407       -1.68512       -0.08070
C         -2.43065       -1.50214       -0.10161
C         -3.14493       -0.33173       -0.04660
C         -4.53423       -0.71042       -0.05566
N         -5.66689       -0.78369        0.08333
C         -2.62695        1.00394        0.01234
C         -1.32311        1.45941       -0.00804
C         -0.05885        0.73610       -0.04345
C          0.97765        1.66406       -0.07763
C          2.39779        1.50313       -0.08770
H          2.92967        2.45235       -0.13025
H          0.73688        2.72190       -0.10963
H         -1.21558        2.54438        0.01721
N         -3.35507        1.83962        0.06016
H         -3.30047        2.84326        0.22140
H         -4.33120        1.57617        0.18686
H         -2.95383       -2.45699       -0.14570
H         -0.76022       -2.73998       -0.10719
H          1.20757       -2.56121        0.01802
N          3.36472       -1.87340        0.08488
H          4.34375       -1.61482        0.19720
H          3.30982       -2.87971        0.22844
