24
Coordinates from ORCA-job ./opt_b97-3c_parallel
N          2.82703        1.94619        0.13741
C          2.02139        1.19278        0.11633
C          2.40224       -0.06250        0.47032
C          1.77902       -1.13302       -0.07206
N          0.51807       -1.49314       -0.29839
C         -0.53009       -0.65404       -0.21624
N         -1.59439       -1.38909       -0.30922
C         -2.72819       -1.26357        0.30379
C         -3.44620       -0.02766        0.24423
C         -2.96068        1.00999       -0.49434
C         -1.72395        1.55908       -0.30644
C         -0.48655        0.80922       -0.18546
C          0.68414        1.66893       -0.12716
H          0.54271        2.74125       -0.24900
H         -1.64686        2.64237       -0.29490
H         -3.58746        1.41227       -1.28778
H         -4.38738        0.04820        0.78066
H         -3.27882       -1.97871        0.93388
N          2.12955       -2.14966       -0.31554
H          3.12572       -1.94071       -0.36818
H          2.01412       -3.09073       -0.68956
H          3.08353       -0.21373        1.30864
H          3.84298        1.87127        0.18473
H          2.61507        2.93884        0.23531
