26
Coordinates from ORCA-job ./opt_b97-3c_parallel
N         -1.47699       -3.30007        1.38781
C         -1.71604       -2.55133        0.55568
C         -1.45495       -1.49597        0.34284
C         -2.68952       -0.89841        0.30513
N         -3.40924        0.25576        0.05012
C         -2.58252        1.32481       -0.23793
N         -1.24050        1.65766       -0.31899
C         -0.40076        0.56998       -0.12797
N          0.56229        1.45107       -0.06448
C          1.83757        1.38224        0.20912
N          1.70908        2.32733        0.77536
H          1.50052        3.26024        1.13082
H          2.70962        2.19470        0.92932
C          2.60496        0.25783       -0.00257
C          3.71316        0.31548        0.02408
N          4.71547        0.78345       -0.26495
C          2.10615       -0.99894       -0.25602
N          0.85610       -1.28102       -0.02132
C         -0.34526       -0.79015        0.08534
N          2.01598       -1.85878       -0.94948
H          2.96405       -1.72507       -1.30234
H          1.81065       -2.85017       -1.07620
N         -3.36107        2.09069       -0.40698
H         -3.31355        2.84380       -1.09537
H         -4.30771        2.13784       -0.02578
H         -3.77166       -1.08539        0.41032
