26
Coordinates from ORCA-job ./opt_b97-3c_parallel
N         -5.10304       -1.86093       -0.12195
C         -4.03967       -1.44741       -0.08979
C         -2.73229       -0.87458       -0.04448
C         -1.72482       -1.78540       -0.17821
N         -0.39003       -1.76022       -0.17793
C          0.44265       -0.64902       -0.06497
C          0.01762        0.74568        0.05858
N         -1.31398        1.18612        0.15523
C         -2.53083        0.52504        0.13787
N         -3.13042        1.44602        0.27691
H         -3.26947        2.42030        0.55136
H         -4.07431        1.06158        0.19233
C          0.91721        1.90657        0.10498
C          0.39356        3.24280        0.17819
N         -0.06352        4.28744        0.23217
C          2.35642        1.90828        0.08090
N          3.30852        0.90589        0.05159
C          3.00149       -0.38858       -0.01821
C          1.82516       -1.10348       -0.09281
C          2.24913       -2.47669       -0.18574
N          2.63278       -3.54970       -0.25067
N          4.11653       -0.35889        0.00539
H          5.05438        0.00623       -0.18026
H          4.27000       -1.35137        0.20203
H          3.01990        2.78786        0.11776
H         -1.79573       -2.87700       -0.31396
