22
Coordinates from ORCA-job ./opt_b97-3c_parallel
N         -2.77380       -2.77629       -0.14143
C         -2.27748       -1.75144       -0.03912
C         -1.65924       -0.45663        0.04785
C         -2.63289        0.48729       -0.22409
C         -2.49215        1.91207       -0.25088
C         -1.35623        2.64878       -0.03450
N         -0.06649        2.26479        0.25272
C          0.41354        0.98375        0.42947
C          1.74744        1.14189        0.69924
C          2.67221        0.32032        0.11763
N          2.70235       -0.99230       -0.16109
C          1.60620       -1.71635        0.11693
N          0.45093       -1.36413        0.58693
C         -0.25863       -0.29555        0.36707
H          1.39897       -2.78963       -0.00951
N          3.69860        0.43055       -0.26916
H          3.23885        1.00264       -0.97418
H          4.39786       -0.13089       -0.75169
H          2.05467        1.76441        1.53772
H         -1.29883        3.74712       -0.07110
H         -3.39816        2.46609       -0.47547
H         -3.64639        0.15424       -0.44353
