24
Coordinates from ORCA-job ./opt_b97-3c_parallel
N         -0.29918       -3.13203       -1.39871
C         -0.54188       -2.15950       -0.85108
C         -0.82687       -0.96477       -0.09781
C         -2.14790       -0.58863        0.02664
C         -2.45388        0.70355        0.14389
C         -1.48933        1.66601        0.07110
N         -0.21331        1.86795       -0.28753
C          0.68123        0.87276       -0.47688
N          1.81002        1.39281       -1.09431
C          3.01783        0.83742       -0.73290
N          3.56009        0.01773        0.22778
C          2.57897       -0.61121        0.95824
C          1.26593       -0.97409        0.90970
C          0.38625       -0.34150        0.11539
H          0.99400       -1.91527        1.38843
H          3.37260       -1.10651        1.53901
H          3.80360        1.33824       -1.32130
N         -1.60425        2.73924        0.29988
H         -2.53761        2.72735        0.71054
H         -1.15803        3.58535        0.65363
H         -3.49903        1.00308        0.21748
N         -3.12965       -1.51093        0.01238
H         -4.07935       -1.23867       -0.24359
H         -2.96448       -2.42727       -0.40567
