31
Coordinates from ORCA-job ./opt_b97-3c_parallel
N         -4.97938       -1.42559        1.88957
C         -4.06125       -1.15717        1.26323
C         -2.89223       -0.86161        0.47489
C         -2.70191        0.26444       -0.33243
N         -3.62513        0.83917       -0.56695
H         -4.57256        0.54054       -0.33686
H         -3.72250        1.61655       -1.21917
C         -1.38346        0.82087       -0.68986
C         -1.36601        1.98196       -1.55563
N         -0.88398        1.91371       -2.58988
C         -0.14938        0.32725       -0.21690
C         -0.02343       -1.10899       -0.30443
N          1.09552       -1.93497       -0.29826
C          2.35009       -1.50919       -0.12238
C          2.93127       -0.31049        0.22502
C          4.34773       -0.58458        0.33029
N          5.45680       -0.84992        0.39104
C          2.23710        0.93813        0.49375
C          0.87954        1.16876        0.23045
C          0.47935        2.49460        0.66734
N         -0.02761        2.76842        1.65568
N          3.00057        1.65827        0.87659
H          4.00458        1.75390        1.03329
H          2.57105        2.44290        1.36822
N          2.45091       -2.58878       -0.37345
H          2.25960       -3.49461       -0.80337
H          3.46922       -2.53143       -0.31934
C         -1.03241       -1.94994       -0.64953
C         -1.93545       -1.92537        0.36441
H         -2.10770       -2.81650        0.96213
H         -0.92591       -2.80833       -1.31189
