27
Coordinates from ORCA-job ./opt_b97-3c_parallel
N         -4.60561       -2.00465       -0.03237
C         -3.61312       -1.44044       -0.05225
C         -2.39980       -0.68302       -0.08044
C         -2.62646        0.66277       -0.25096
N         -1.85220        1.75484       -0.29111
C         -0.46853        1.74577       -0.16198
C          0.50830        0.68247       -0.05622
C          1.79123        1.21362        0.14136
N          3.04318        0.72912        0.33729
C          3.27191       -0.61870        0.11469
N          4.33298       -0.86410        0.32123
H          4.54938       -1.86278        0.27454
H          5.23872       -0.41962        0.48860
C          2.48500       -1.54124       -0.48898
C          1.20773       -1.76012       -0.08904
C          0.18062       -0.74260       -0.04322
C         -1.13272       -1.34997        0.00872
H         -1.19217       -2.43462        0.07569
H          0.89046       -2.79715       -0.00453
H          2.84530       -2.06258       -1.37686
N          2.34765        2.16762        0.27890
H          2.43520        2.60604        1.20012
H          2.80657        2.81999       -0.36326
H         -0.72829        2.81583       -0.20305
N         -3.41921        1.42972       -0.38297
H         -4.19640        1.04700        0.16162
H         -3.86966        1.93474       -1.15008
