23
Coordinates from ORCA-job ./opt_b97-3c_parallel
N         -4.84159       -1.24740       -1.01560
C         -3.77663       -0.99213       -0.69223
C         -2.44081       -0.70255       -0.26482
C         -2.21244        0.63484        0.02827
C         -0.91809        1.28303        0.23642
C         -1.20888        2.68876        0.32772
N         -1.17836        3.55292       -0.42026
C          0.35728        0.72378        0.16430
N          1.41290        1.64483        0.12448
C          2.71564        1.19922        0.02324
N          3.63192        0.17324       -0.09019
C          3.00655       -1.05594       -0.09468
N          1.74101       -1.30075        0.03751
C          0.59464       -0.70334        0.16456
C         -0.32478       -1.61639        0.55421
C         -1.48859       -1.76221       -0.11487
H         -1.82603       -2.75830       -0.38507
H         -0.20441       -2.12962        1.50739
N          3.84292       -1.75716       -0.24819
H          4.83745       -1.57063       -0.37364
H          3.65876       -2.64613       -0.71068
H          3.02660        2.25547        0.05439
H         -3.08791        1.28657       -0.00884
