30
Coordinates from ORCA-job ./opt_b97-3c_parallel
N          1.19734        2.33391        2.28166
C          1.59348        1.96904        1.27390
C          1.41603        1.00748        0.74160
C          2.58762        0.26818        0.70368
N          3.19145       -0.85591        0.14465
C          2.33769       -1.69879       -0.56018
N          0.98610       -1.82697       -0.81943
C          0.27173       -0.71002       -0.42518
N         -0.77181       -1.48929       -0.35061
C         -1.90772       -1.35942        0.27653
N         -1.95465       -2.38955        0.67140
H         -1.78562       -3.14649        1.33429
H         -2.96719       -2.25964        0.65631
C         -2.60494       -0.09651        0.30243
C         -3.81331        0.05187        1.05917
N         -4.79377        0.14204        1.63712
C         -2.10480        1.00153       -0.35248
N         -2.83273        0.98513       -1.49114
H         -3.84329        0.84562       -1.44544
H         -2.67942        1.70995       -2.19457
C         -0.79515        1.35953       -0.12124
C         -0.34378        2.24191       -1.16432
N          0.06119        2.90454       -2.00120
C          0.32214        0.56670        0.08095
N          2.94353       -2.53829       -0.94725
H          3.95272       -2.38242       -0.98058
H          2.79120       -3.40918       -1.45865
N          3.67549        0.16900        0.93425
H          3.49096        0.82437        1.69493
H          4.69491        0.12666        0.86695
