31
Coordinates from ORCA-job ./opt_b97-3c_parallel
N         -2.54023       -3.74292        0.63187
C         -2.15489       -2.70638        0.36181
C         -1.61490       -1.39859        0.06082
C         -0.44869       -1.57473       -0.65538
C          0.66246       -0.77416       -0.56714
C          1.81324       -1.31762       -1.12539
N          3.13914       -1.18868       -0.94980
C          3.50261       -0.38160        0.10133
N          4.51557       -0.82536        0.08594
H          4.99706       -1.60928       -0.35441
H          4.77671       -0.86619        1.07127
C          2.92358        0.38583        1.05881
C          1.83196        1.10690        0.65928
N          2.10410        2.09256        1.09100
H          2.59287        2.72363        1.72619
H          1.11693        2.34879        1.16189
C          0.62578        0.51612        0.09878
C         -0.41041        1.43215       -0.36149
N         -0.14529        2.47627       -0.64076
H         -0.86283        3.05873       -1.07323
H          0.74054        2.95294       -0.80336
C         -1.82627        1.10131       -0.25310
C         -2.82564        2.11748       -0.50132
N         -3.60204        2.92368       -0.73016
C         -2.24137       -0.13412        0.39225
N         -3.24401       -0.25220        0.85380
H         -3.89240        0.53354        0.86948
H         -3.77074       -1.06561        1.17023
H          3.36010        0.45083        2.06223
H          2.04453       -2.17376       -1.77651
H         -0.26938       -2.56182       -1.08419
