26
Coordinates from ORCA-job ./opt_b97-3c_parallel
N         -0.70228       -2.73920        0.31051
C         -0.62458       -1.63816        0.19138
C         -2.03157       -1.28517        0.15985
C         -2.50811       -0.01095       -0.02409
N         -1.98629        1.22352       -0.05189
C         -0.62982        1.49591        0.04450
C          0.51273        0.61033        0.01616
C          1.62642        1.43786        0.11301
N          2.96002        1.30586        0.18549
C          3.44140        0.05241       -0.09040
C          2.87786       -1.03421       -0.65818
C          1.70520       -1.52827       -0.19232
C          0.46738       -0.79019        0.01476
H          1.68810       -2.61191       -0.13209
H          3.31184       -1.44878       -1.56714
H          4.53105       -0.09850       -0.04434
H          2.29921        2.30675        0.19322
N         -0.95655        2.55703        0.07663
H         -0.03187        2.79094        0.43996
H         -1.43502        3.45432       -0.01930
N         -3.57301        0.27367       -0.12888
H         -4.16400        0.86077       -0.71835
H         -4.14755       -0.54172        0.09169
H         -2.78795       -2.07737        0.23190
H         -1.27931       -3.55596        0.51681
H          0.22653       -2.97317        0.65808
