26
Coordinates from ORCA-job ./opt_b97-3c_parallel
N          3.10719        2.91089        0.37442
C          2.16512        2.27916        0.23495
C          0.97711        1.46907        0.09692
C          0.07113        2.40144       -0.38055
C         -1.33760        2.24178       -0.49065
C         -2.04031        1.14314       -0.04916
C         -1.57357       -0.21247        0.14435
C         -2.57529       -1.14147        0.62866
N         -3.36642       -1.85532        1.04323
C         -0.27965       -0.70954       -0.09579
C         -0.27938       -2.04157       -0.52385
C          0.69180       -3.00293       -0.65837
C          2.02036       -2.94288       -0.15350
C          2.59352       -1.83490        0.39974
C          2.13666       -0.54472        0.46956
C          0.89495        0.00711        0.15115
H          2.92037        0.09534        0.85300
H          3.61137       -1.97962        0.74884
H          2.61307       -3.84947       -0.22600
H          0.39499       -3.95577       -1.08615
H         -1.21868       -2.43550       -0.89820
N         -3.08998        1.49992        0.02374
H         -3.69037        0.81413        0.47912
H         -3.55657        2.40033        0.11489
H         -1.84464        3.16393       -0.78811
H          0.37528        3.42483       -0.60928
