22
Coordinates from ORCA-job ./opt_b97-3c_parallel
N          4.96012       -0.06831        0.26861
C          3.82093       -0.02764        0.18456
C          2.39637        0.06142        0.06757
C          1.76647        1.33999        0.11741
C          0.37784        1.62689       -0.05857
C         -0.73452        0.72537       -0.20049
C         -1.90607        1.36252       -0.44683
C         -2.89863        1.25276        0.46216
N         -3.66625        0.12517        0.60288
C         -3.19184       -1.07385        0.08714
C         -1.88453       -1.45089       -0.19934
C         -0.68798       -0.72552       -0.17404
C          0.44493       -1.52209       -0.18603
C          1.83240       -1.18007       -0.10050
H          2.49408       -2.04336       -0.13023
H          0.29885       -2.59683       -0.24252
H         -1.79762       -2.51946       -0.37187
H         -3.92104       -1.89730        0.11778
H         -3.51093        2.02745        0.94703
H         -2.10166        1.79978       -1.42315
H          0.13780        2.68654       -0.07294
H          2.41815        2.20041        0.23722
