21
Coordinates from ORCA-job ./opt_b97-3c_parallel
N         -3.00375       -1.19461       -0.64416
C         -2.27331       -0.36885        0.12459
C         -2.80461        0.85700       -0.14577
C         -1.87389        1.66719        0.42456
C         -0.65034        1.86060       -0.14197
C          0.40941        0.87966       -0.13205
N          1.64055        1.40446       -0.53041
C          2.74837        0.58207       -0.49981
N          3.35044       -0.62696       -0.22814
C          2.43942       -1.51484        0.30137
N          1.18754       -1.32046        0.56264
C          0.20967       -0.49871        0.33719
C         -1.13118       -1.01632        0.50108
H         -1.19812       -2.03526        0.87518
H          2.88366       -2.49403        0.53405
H          3.54196        1.24033       -0.88333
H         -0.39360        2.85052       -0.50729
H         -2.12215        2.19843        1.34005
H         -3.86827        1.07536       -0.08525
H         -2.89191       -2.20349       -0.56338
H         -3.98963       -1.00087       -0.80959
