26
Coordinates from ORCA-job ./opt_b97-3c_parallel
N          3.62664        2.01513       -0.25387
C          3.26784        0.97205        0.04713
C          2.13752        0.09901        0.11718
C          2.79838       -1.03448       -0.34202
N          2.30648       -2.31946       -0.53666
C          1.04326       -2.61084       -0.08852
N          0.24019       -1.90221        0.61895
C         -0.21123       -0.69932        0.47366
C          0.72964        0.31493        0.40710
C          0.29018        1.54638        0.75990
C         -0.52004        2.22056       -0.08688
C         -1.87324        1.83113       -0.33801
C         -2.37821        0.60289        0.09461
C         -1.60630       -0.57603        0.51357
C         -2.49115       -1.68911        0.77392
N         -3.15341       -2.59530        0.55724
N         -3.46932        0.75357       -0.05465
H         -4.27499        1.35976        0.08814
H         -3.82889       -0.14206       -0.38182
H         -2.47854        2.60171       -0.82630
N         -0.04457        3.17660       -0.36335
H         -0.70147        3.93343       -0.18154
H          0.88382        3.59504       -0.40757
H          0.41145        1.88287        1.78854
H          0.52699       -3.58002       -0.16245
H          3.63899       -1.64424       -0.70631
