28
Coordinates from ORCA-job ./opt_b97-3c_parallel
N          5.25443        0.04498        0.18345
C          4.11799        0.13353        0.10447
C          2.68522        0.25471        0.05221
C          1.95704       -0.84961        0.59304
C          0.55761       -1.14846        0.47088
C          0.21950       -2.40931        1.07231
N         -0.07528       -3.38961        1.57943
C         -0.49040       -0.25107       -0.01609
C         -0.35146        1.19583       -0.07474
C         -1.46734        2.09629        0.13271
C         -2.75777        1.74245        0.42706
N         -3.52783        0.69344        0.14817
C         -3.01850       -0.39535       -0.52674
C         -1.68576       -0.93090       -0.53062
C         -1.60941       -2.19999       -1.20322
N         -1.58095       -3.19465       -1.76340
H         -3.82776       -1.05749       -0.87424
N         -3.58950        2.38399        0.77192
H         -4.59830        2.35420        0.91849
H         -3.27158        3.23679        1.23342
H         -1.22575        3.15257        0.23171
C          0.80558        1.92854       -0.29285
C          2.16644        1.45463       -0.39854
N          2.73961        2.33908       -0.75379
H          2.66924        3.29031       -1.11201
H          3.73650        2.12576       -0.72463
H          0.65860        2.99629       -0.48090
H          2.57330       -1.64701        1.00597
