24
Coordinates from ORCA-job ./opt_b97-3c_parallel
N         -4.74466       -1.69068        0.48401
C         -3.68144       -1.29283        0.34118
C         -2.37012       -0.76084        0.14505
C         -1.47234       -1.76830       -0.05757
N         -0.15982       -1.86646       -0.25565
C          0.67848       -0.77065       -0.33927
C          1.84894       -1.38918       -0.64736
C          2.99741       -1.07356        0.00266
C          3.54592        0.24548       -0.04681
C          2.77476        1.31023       -0.46102
N          1.45450        1.57381       -0.56040
C          0.42219        0.65485       -0.31594
C         -0.86260        1.30761       -0.07742
C         -0.95325        2.74129       -0.02578
N         -1.05421        3.87799        0.04279
C         -2.11693        0.64419        0.16838
H         -2.97974        1.27761        0.35957
H          2.91535        2.38454       -0.65222
H          4.59077        0.38809        0.21594
N          3.63165       -1.89765        0.37284
H          4.40295       -1.52829        0.92608
H          3.23167       -2.66685        0.90718
H          1.91921       -1.95884       -1.57434
H         -1.50332       -2.86731       -0.11843
