27
Coordinates from ORCA-job ./opt_b97-3c_parallel
N         -3.06639       -3.72004       -0.36889
C         -2.67913       -2.64837       -0.27457
C         -2.15826       -1.31896       -0.13225
C         -3.24358       -0.57542       -0.49877
N         -3.59283        0.69878       -0.36773
C         -2.74673        1.59248        0.24710
C         -1.31658        1.59985        0.40371
C         -0.85705        2.79488        1.05451
N         -0.51132        3.73409        1.60670
C         -0.39599        0.50945        0.05264
C          0.94214        0.94034       -0.34929
C          1.13533        2.21796       -1.00730
N          1.28408        3.20887       -1.55815
C          2.14083        0.22334       -0.34429
N          3.16020        0.53833       -0.67343
H          3.26966        1.42986       -1.15472
H          3.98790       -0.01417       -0.89328
C          2.41062       -1.05445        0.29163
C          3.63149       -1.78557        0.57847
N          4.59856       -2.33458        0.31313
C          1.47617       -2.00656        0.66102
C          0.07267       -2.00211        0.39491
C         -0.79388       -0.88523        0.09003
H         -0.37940       -2.96978        0.57911
H          1.76953       -2.98071        1.06019
H         -3.39127        2.46256        0.44588
H         -4.28311       -0.39932       -0.81499
