21
Coordinates from ORCA-job ./opt_b97-3c_parallel
N          4.83196        0.83747       -1.15852
C          3.78933        0.59525       -0.76091
C          2.49040        0.25010       -0.27456
C          1.87155        1.35638        0.24074
C          0.56379        1.49722        0.42353
C         -0.38462        0.55134        0.13267
N         -1.56367        1.29681       -0.01327
C         -2.79727        0.68849       -0.12718
N         -3.48423       -0.49681       -0.13684
C         -2.57725       -1.51229        0.01734
N         -1.25898       -1.87940        0.16490
C         -0.26531       -0.90243        0.21532
N          0.90977       -1.64110        0.21768
C          2.17016       -1.13163       -0.06332
H          2.88157       -1.94773       -0.26941
H         -3.17834       -2.43696        0.00801
N         -3.55640        1.48351       -0.24583
H         -4.55479        1.41875       -0.03424
H         -3.43432        2.42300       -0.62926
H          0.25544        2.43850        0.88372
H          2.49388        2.19527        0.55924
