29
Coordinates from ORCA-job ./opt_b97-3c_parallel
N          0.31205        2.43775       -2.31377
C          0.76944        2.54722       -1.27092
C          0.98987        1.29831       -0.58273
C          2.37469        1.35001       -0.44801
C          3.20514        0.41926        0.24924
C          2.85508       -0.87249        0.55170
N          3.70681       -1.45218        0.94940
H          3.85340       -2.38811        1.32751
H          4.56673       -0.93795        1.14036
C          1.70999       -1.57267        0.26441
C          0.44951       -1.13021       -0.07623
N         -0.41417       -2.13061       -0.39188
C         -1.70428       -1.83636       -0.77684
N         -2.04097       -2.81358       -1.16832
H         -1.58078       -3.50841       -1.75640
H         -3.02228       -2.81180       -1.44683
C         -2.26583       -1.54254        0.43123
C         -2.31799       -0.18796        0.54694
N         -3.37324       -0.14143        0.88813
H         -3.31937        0.84788        1.13529
H         -4.23707       -0.47874        1.31399
C         -1.26024        0.73459        0.19260
C         -1.62953        2.11033        0.38420
N         -1.94273        3.19271        0.57711
C          0.04806        0.28521       -0.10152
H         -2.19481       -2.20503        1.30173
H          1.78956       -2.65542        0.37758
H          4.22649        0.76937        0.40201
H          2.96084        2.21664       -0.76206
