23
Coordinates from ORCA-job ./opt_b97-3c_parallel
N         -4.18006       -1.56976       -0.11395
C         -3.08513       -1.33779        0.12053
C         -2.27425       -0.60461        0.28724
C         -2.11791        0.67656       -0.18473
N         -1.08132        1.52721       -0.33849
C          0.19080        1.16283       -0.04545
N          1.10333        2.20382       -0.18012
C          2.42469        1.87645        0.06801
C          3.30876        0.88353        0.38387
C          2.93128       -0.39419        0.31565
C          1.65718       -0.72699       -0.06068
C          1.65480       -1.30670       -1.37039
N          1.61287       -1.74767       -2.42292
C          0.50654       -0.11860        0.36818
N         -0.10478       -0.82317        0.98165
C         -1.17677       -1.12677        0.92759
H         -1.07082       -1.97786        1.62038
H          3.64159       -1.18094        0.56392
H          4.32443        1.13602        0.68322
H          2.91886        2.84822       -0.08951
N         -2.64726        1.57594       -0.55361
H         -2.89232        2.47630       -0.96488
H         -3.51768        1.04730       -0.49187
