27
Coordinates from ORCA-job ./opt_b97-3c_parallel
N         -5.16885       -1.24838        0.02758
C         -4.11417       -0.80586        0.06894
C         -2.77856       -0.29135        0.12650
C         -1.75795       -1.15589        0.62636
N         -0.68573       -0.93422        0.58143
C          0.26371       -0.40596        0.38313
C          0.05881        1.03891        0.25466
N          1.10224        1.95651        0.38475
C          2.41214        1.55047        0.24901
N          3.26338        0.52901       -0.13632
C          2.64780       -0.70843       -0.22435
C          1.46859       -1.08967        0.39486
C          1.72169       -2.12179        0.76995
N          1.73137       -3.23374        0.50302
N          3.56184       -0.86274       -0.85287
H          3.26928       -1.82917       -1.03298
H          4.38334       -0.73284       -1.44935
N          2.86596        2.53350        0.47412
H          3.86549        2.72894        0.54738
H          2.41820        3.27549        1.01696
C         -1.15568        1.66377       -0.05026
C         -2.44989        1.00842       -0.25243
N         -3.14020        1.76383       -0.67835
H         -3.13598        2.53010       -1.35216
H         -3.97618        1.21912       -0.89530
H         -1.11159        2.73999       -0.23790
H         -2.02685       -2.15051        1.01636
