26
Coordinates from ORCA-job ./opt_b97-3c_parallel
N          2.71408        2.15538       -0.98218
C          3.24357        1.38567       -0.31898
C          2.19886        0.45250       -0.02135
C          2.30303       -0.76052       -0.69236
N          1.73147       -1.97126       -0.29454
C          0.57914       -2.02884        0.47242
C         -0.42916       -0.99062        0.46183
C         -1.71246       -1.50797        0.02672
N         -2.74813       -0.82593       -0.59730
C         -2.73953        0.54467       -0.46532
N         -2.16864        1.68217        0.07311
C         -0.98297        1.50694        0.77727
N         -1.03852        2.58026        1.06242
H         -0.45167        3.34874        0.72209
H         -1.48316        2.96286        1.90309
C         -0.10535        0.33778        0.75609
C          1.24955        0.75787        1.02612
H          1.44266        1.61959        1.66120
N         -3.66077        0.73632       -1.04616
H         -3.86278        0.44915       -2.00661
H         -4.50233        1.23259       -0.74399
H         -2.22145       -2.40195       -0.36815
N          0.76689       -3.11653        0.59799
H          0.63077       -3.53542        1.52204
H          1.25903       -3.84566        0.07181
H          3.12658       -0.96665       -1.39700
