22
Coordinates from ORCA-job ./opt_b97-3c_parallel
N          3.07992        1.95065       -0.39339
C          2.44112        0.82354       -0.04686
C          1.22750        1.06474        0.54515
C          0.06551        0.45094        0.16863
N         -1.04093        1.15930        0.02931
C         -2.39341        0.90123       -0.12757
N         -3.08225       -0.30157       -0.13520
C         -2.25872       -1.40605        0.02433
N         -0.97770       -1.90954        0.18631
C         -0.01119       -0.91579        0.22148
N          0.90118       -1.95536        0.25943
C          2.20357       -1.51441        0.10143
C          2.93382       -0.40464       -0.22298
H          3.91471       -0.53090       -0.68133
H          2.93164       -2.34113        0.14332
H         -2.94948       -2.26549        0.00303
N         -3.08145        1.75912       -0.22833
H         -3.02484        2.66735        0.23691
H         -3.94138        1.79999       -0.77967
H          1.19622        1.74649        1.39225
H          2.92676        2.82214        0.11481
H          4.06592        1.92615       -0.65690
