30
Coordinates from ORCA-job ./opt_b97-3c_parallel
N         -3.32404       -2.26273        1.25219
C         -2.26636       -1.98315        0.92519
C         -0.91986       -1.65638        0.55084
C          0.02935       -2.68410        0.89838
C          1.36852       -2.58162        0.71582
C          1.44219       -2.39547       -0.63183
N          1.72437       -1.05133       -0.77420
C          0.90964       -0.08237       -0.25326
C         -0.47982       -0.39934        0.08819
C         -1.47947        0.48155       -0.50777
C         -2.62237       -0.01255       -1.24388
N         -2.39521       -0.56786       -2.21916
C         -1.54110        1.85965       -0.31074
C         -0.56498        2.67181        0.38955
C          0.77926        2.33226        0.44737
C          1.40749        1.20370       -0.06184
C          2.84157        1.32623       -0.21776
N          3.97685        1.37376       -0.34048
N          1.25680        3.26160        0.83237
H          2.24682        3.31947        1.06926
H          0.88362        4.20228        0.95698
H         -0.89653        3.67670        0.70467
N         -2.34921        2.58752       -0.54703
H         -3.22098        2.24970       -0.95360
H         -2.39119        3.60484       -0.59576
N          2.28448       -2.69285       -1.28340
H          3.05449       -2.32209       -1.84163
H          2.21099       -3.67981       -1.53093
H          2.05307       -3.24624        1.24188
H         -0.37235       -3.59985        1.32768
