28
Coordinates from ORCA-job ./opt_b97-3c_parallel
N         -2.99555       -3.20522        1.03313
C         -2.30802       -2.35633        0.69796
C         -1.42450       -1.27642        0.31283
C         -2.05270        0.00562        0.45775
C         -1.59069        1.25401       -0.08029
C         -2.63515        2.23101       -0.26851
N         -3.48094        2.98213       -0.43367
C         -0.18081        1.62445       -0.08576
N          0.00105        2.71285       -0.22968
H          0.89834        2.71455       -0.71148
H         -0.61384        3.33509       -0.75235
C          0.92507        0.72348        0.21252
C          2.09654        1.39582        0.74696
C          3.24875        0.70424        1.23259
C          3.92547       -0.29895        0.47741
C          3.46177       -0.81765       -0.77049
C          2.08412       -1.06305       -1.07357
C          0.92951       -0.62726       -0.29728
C         -0.19669       -1.45423       -0.32591
N         -0.05309       -2.50343       -0.67694
H         -0.68066       -3.30541       -0.64873
H          0.88760       -2.86154       -0.52404
H          1.94646       -1.81121       -1.84924
H          4.18235       -1.37280       -1.36264
H          4.95539       -0.50233        0.75285
H          3.84255        1.20075        1.99366
H          1.95735        2.38337        1.17651
H         -3.09689       -0.01848        0.76380
