23
Coordinates from ORCA-job ./opt_b97-3c_parallel
N         -3.95671       -1.73845       -0.23955
C         -3.08985       -0.99888       -0.14623
C         -1.96688       -0.11649       -0.04600
C         -2.47563        1.13525       -0.25006
N         -2.02086        2.38199       -0.19078
C         -0.69911        2.67825        0.04756
C          0.47561        1.85578        0.13349
C          1.68777        2.62319        0.19591
N          2.67561        3.19558        0.23983
C          0.52113        0.39478        0.16908
N          1.84258       -0.08718        0.15155
C          2.10864       -1.42399       -0.06334
N          1.67664       -2.71594       -0.25414
C          0.31941       -2.80266       -0.03767
C         -0.46323       -1.85473        0.54772
C         -0.61206       -0.53200        0.21439
H         -1.01234       -2.18521        1.42865
H         -0.04094       -3.83696       -0.15235
N          3.20569       -1.41491       -0.16863
H          3.80796       -2.23466       -0.10388
H          3.72176       -0.72456       -0.71309
H         -0.86458        3.76665        0.01879
H         -3.41407        1.67463       -0.45309
