28
Coordinates from ORCA-job ./opt_b97-3c_parallel
N          5.00610        1.61420        1.06175
C          3.93141        1.37124        0.75717
C          2.57307        1.08289        0.41307
C          2.44853        0.07281       -0.51186
C          1.22104       -0.65833       -0.74117
C          1.68669       -1.74144       -1.56772
N          1.31476       -2.03318       -2.60769
C          0.04275       -0.49966       -0.01930
C         -0.55648        0.81736       -0.01222
C         -1.89416        1.07277       -0.30923
C         -2.34437        2.33112       -0.86032
N         -2.45156        3.05681       -1.73871
C         -3.03546        0.20948       -0.05993
C         -3.03695       -0.96760        0.67212
C         -1.91027       -1.81045        0.91929
C         -0.64464       -1.63347        0.39151
C         -0.06677       -2.93545        0.60051
N          0.58280       -3.85136        0.81741
H         -2.21023       -2.73473        1.41675
H         -3.95750       -1.43495        1.03666
N         -4.12425        0.37607       -0.21743
H         -4.99870       -0.14542       -0.23215
H         -4.23248        1.13979       -0.88326
C          0.23340        2.00654        0.24514
C          1.54184        1.98226        0.82438
H          1.85926        2.87285        1.35994
H         -0.28651        2.94768        0.38986
H          3.37491       -0.29511       -0.95955
