22
Coordinates from ORCA-job ./opt_b97-3c_parallel
N         -3.75574       -1.20276        0.05546
C         -2.73739       -0.79004       -0.00099
N         -3.29634        0.47080        0.02363
C         -2.36879        1.49428        0.01628
N         -1.03985        1.88818        0.01071
C         -0.03874        0.91197        0.00046
N          1.19522        1.57352        0.03732
C          2.39156        0.87664        0.03825
N          2.96034       -0.37825        0.00534
C          1.98592       -1.35138       -0.04082
N          0.62111       -1.58660       -0.05956
C         -0.30359       -0.53496       -0.03314
N         -1.47737       -1.08988       -0.05065
N          2.51756       -2.32527       -0.07220
H          3.51392       -2.48002        0.11325
H          2.17853       -3.26319       -0.30866
N          3.22574        1.60696        0.08890
H          4.20503        1.39652        0.30701
H          3.23167        2.62327       -0.04463
H         -3.23641        2.17769        0.02603
H         -4.06170       -1.87646        0.75958
H         -4.59288       -0.99126       -0.49037
