23
Coordinates from ORCA-job ./opt_b97-3c_parallel
N         -5.75640       -0.02891        0.01046
C         -4.61555       -0.06757       -0.02571
C         -3.18984       -0.16111       -0.06900
C         -2.58277       -1.37057       -0.52016
N         -1.28481       -1.68578       -0.48912
C         -0.15644       -1.00802       -0.23677
N          0.90659       -1.91367       -0.10233
C          2.23420       -1.68087        0.24426
C          2.89114       -0.43172        0.04109
C          4.27232       -0.24658        0.35140
N          5.37530       -0.12834        0.62209
C          2.30733        0.59310       -0.61426
C          1.19425        1.08209       -0.01777
C          1.50302        2.46619        0.19497
N          1.71511        3.57631        0.35950
C         -0.09846        0.42786        0.03869
C         -1.16034        1.27768        0.32565
C         -2.56674        0.99578        0.33689
H         -3.18976        1.83673        0.63805
H         -0.95816        2.31027        0.59001
H          2.53617        0.80090       -1.65890
H          2.92857       -2.47524        0.56139
H         -3.20199       -2.23278       -0.81268
