27
Coordinates from ORCA-job ./opt_b97-3c_parallel
N         -0.49225       -3.96675        0.62855
C         -0.79092       -2.87169        0.49035
C         -1.09676       -1.48147        0.31036
C         -2.51224       -1.15971        0.18560
C         -3.06751        0.09093       -0.27420
C         -2.35421        1.32078       -0.14004
C         -1.29853        1.46655        0.69454
C         -0.19650        0.80239        0.27312
N          0.67805        1.84111        0.20771
C          1.99831        1.60164       -0.11175
C          3.03557        0.77857       -0.43595
C          2.34905       -0.39460       -0.33523
N          1.23465       -1.18218       -0.13754
C          0.00751       -0.63607        0.11651
N          2.85664       -1.36730       -0.51811
H          3.34787       -1.56755       -1.39411
H          2.98891       -2.21727        0.03944
H          4.01940        0.89863        0.02047
N          2.14157        2.70009       -0.02050
H          2.73042        3.18769        0.66070
H          1.76612        3.44958       -0.60907
H         -1.46188        1.65591        1.75611
N         -2.72408        2.30790       -0.45948
H         -3.65177        2.21390       -0.04344
H         -2.82724        3.00338       -1.19934
H         -4.08930        0.10499       -0.64667
H         -3.20430       -1.99840        0.21792
