29
Coordinates from ORCA-job ./opt_b97-3c_parallel
N          4.64644        1.01851        0.33991
C          3.54205        0.73072        0.30653
C          2.15785        0.29924        0.26753
C          2.06195       -1.09757        0.58916
N          1.02273       -1.95698        0.28101
C         -0.25763       -1.64202       -0.14570
N         -0.26097       -2.74940       -0.26555
H         -0.46092       -3.51858        0.38165
H         -0.04960       -3.21340       -1.15481
C         -0.96361       -0.44533       -0.10989
C         -2.37040       -0.73641       -0.38297
N         -3.42756        0.08107       -0.31506
C         -3.51785        1.36993        0.00054
C         -2.56880        2.30159        0.28452
C         -1.15418        2.07614        0.27050
C         -0.40327        0.89684        0.09675
C          1.05551        1.14968        0.05036
N          1.42007        2.18620       -0.13917
H          0.88624        2.88764       -0.65413
H          2.32174        2.63024        0.04773
H         -0.66400        3.02162        0.48912
H         -2.87718        3.32296        0.49796
H         -4.48284        1.90060        0.05209
N         -3.22820       -1.40535       -0.62055
H         -3.60598       -1.41541       -1.57336
H         -3.97915       -1.80037       -0.04571
N          2.71590       -1.95425        0.86239
H          3.00208       -2.13070        1.82972
H          3.60144       -1.87789        0.35237
