27
Coordinates from ORCA-job ./opt_b97-3c_parallel
N          0.15639       -2.06510       -2.35827
C          0.63376       -1.73902       -1.37142
C          0.68728       -1.18894       -0.40590
C          1.97238       -1.21904        0.08297
N          2.96388       -0.25830        0.25421
C          2.61251        1.01641       -0.17426
N          1.50508        1.48361       -0.67243
C          0.24740        1.21286       -0.46096
C         -0.46230        2.37575       -0.37669
C         -1.81426        2.39392       -0.37389
N         -2.95296        1.66455       -0.12955
C         -2.73058        0.36823        0.14976
N         -3.82700        0.45906        0.31878
H         -4.07284       -0.29314        0.96636
H         -4.72062        0.75391       -0.08236
C         -1.60008       -0.45402        0.12582
C         -2.02942       -1.77176        0.48916
N         -2.37870       -2.80876        0.81530
C         -0.21386       -0.15459       -0.25288
H         -2.27711        3.37061       -0.59172
H          0.05134        3.33905       -0.35112
N          3.51731        1.58234        0.10716
H          4.42565        1.11778        0.15725
H          3.69399        2.54706        0.38878
N          2.78513       -1.79707        0.56622
H          2.35550       -2.66387        0.24333
H          3.74627       -2.04447        0.80778
