18
Coordinates from ORCA-job ./opt_b97-3c_parallel
N         -2.01481       -2.98568       -0.09043
C         -1.91116       -1.89307        0.23073
C         -1.29667       -0.97653        0.14352
C         -2.25496       -0.00363        0.07121
N         -2.50403        1.30886       -0.03640
C         -1.52355        2.22884       -0.13113
N         -0.14549        2.01188       -0.14557
C          0.31394        0.70888       -0.03527
N          1.41998        1.53946       -0.15336
C          2.61790        0.84389       -0.11572
N          3.21970       -0.39399        0.00564
C          2.30193       -1.41806        0.14631
N          1.00607       -1.41555        0.16543
C         -0.01193       -0.61806        0.09993
H          2.71341       -2.43448        0.25766
H          3.66304        1.18419       -0.18645
H         -2.01211        3.21338       -0.20670
H         -3.33158        0.23249        0.06304
