28
Coordinates from ORCA-job ./opt_b97-3c_parallel
N         -5.52696       -0.53991       -0.22223
C         -4.39387       -0.50549       -0.07698
C         -2.97034       -0.49020        0.06828
C         -2.34243       -1.50542        0.83839
N         -1.04245       -1.91754        0.70339
C          0.06906       -1.21757        0.26545
C          1.09038       -2.13927        0.12664
C          2.43288       -1.90884       -0.32421
C          3.17429       -0.75269       -0.26990
C          2.68501        0.51567        0.22960
C          1.34564        0.89921        0.32813
C          1.31759        2.25997        0.82185
N          1.13721        2.97524        1.69637
C          0.14050        0.22379        0.09829
C         -0.96568        0.96526       -0.34210
C         -1.03053        2.27868       -0.93602
N         -0.77186        3.00911       -1.77738
C         -2.35755        0.58310       -0.52997
H         -3.04018        1.25870       -1.05469
N          3.65512        1.05184        0.35619
H          3.53459        1.92285        0.87065
H          4.65744        0.87862        0.31152
H          4.24165       -0.85482       -0.51368
N          2.99182       -2.82703       -0.58597
H          3.86468       -2.85787       -1.10904
H          2.42772       -3.60878       -0.91419
H          0.81934       -3.19229        0.23188
H         -2.91757       -2.32795        1.28993
