30
Coordinates from ORCA-job ./opt_b97-3c_parallel
N         -1.61120       -1.35129       -2.55255
C         -2.10859       -1.36471       -1.52195
C         -1.90302       -0.30708       -0.55597
C         -3.09781        0.32187       -0.21294
C         -3.28314        1.41536        0.71795
C         -2.30322        2.28119        1.12341
C         -0.98153        2.32586        0.76957
C         -0.15084        1.38100        0.21033
N          1.04708        1.85235       -0.19084
C          1.96904        1.03406       -0.80012
C          2.57375        0.04695        0.04719
C          4.00861        0.14825        0.20213
N          5.14098        0.26876        0.29025
C          1.75917       -0.98483        0.51293
N          2.35177       -1.78001        1.02552
H          3.32004       -1.99577        1.26467
H          1.78912       -2.50728        1.46907
C          0.34722       -1.12044        0.13777
C         -0.16631       -2.45115        0.38551
N         -0.73280       -2.88206        1.28010
C         -0.54964        0.02210       -0.11400
N          2.39259        1.93358       -1.29441
H          2.21155        2.80404       -1.79436
H          3.38363        1.73426       -1.43959
H         -0.50180        3.26546        1.03419
H         -2.65849        3.13080        1.69982
H         -4.29478        1.68860        1.03604
N         -4.15258        0.07302       -0.46321
H         -4.32351       -0.78661       -0.98352
H         -5.07036        0.43205       -0.20314
