30
Coordinates from ORCA-job ./opt_b97-3c_parallel
N         -4.18594       -0.46400        0.40002
C         -3.10934       -0.29179        0.21237
C         -2.69561        0.94721       -0.20229
C         -1.31516        1.39435       -0.29732
C         -0.10165        0.73012       -0.08043
C          0.98273        1.69209        0.09822
C          2.32192        1.49791        0.29721
C          3.05587        0.35197        0.15992
C          2.70142       -0.92278       -0.19316
C          1.32579       -1.38874       -0.28680
C          0.10551       -0.71949       -0.10252
C         -0.97580       -1.68908        0.03247
C         -2.35904       -1.49931        0.33117
H         -2.90093       -2.41519        0.56347
H         -0.72263       -2.74349        0.07162
N          1.55649       -2.45577       -0.50252
H          0.73807       -2.38759       -1.10499
H          2.31010       -2.81136       -1.08760
H          3.54141       -1.62260       -0.33204
N          4.14114        0.51358        0.31782
H          4.34211        1.23320        1.01010
H          4.53756       -0.35190        0.67990
H          2.86026        2.41735        0.52967
H          0.70120        2.73735        0.18066
N         -1.52808        2.46015       -0.53975
H         -0.67564        2.41624       -1.09489
H         -2.25901        2.78390       -1.16943
H         -3.52092        1.65741       -0.36383
H         -4.38796       -1.16809        1.10702
H         -4.47752        0.42960        0.79139
