26
Coordinates from ORCA-job ./opt_b97-3c_parallel
N         -4.89102       -0.73869       -1.21656
C         -3.85191       -0.48920       -0.81240
C         -2.55822       -0.18930       -0.26754
C         -1.66429       -1.28251       -0.05769
C         -0.58095       -1.15133        0.73491
C          0.49719       -0.45552        0.29442
C          0.34652        0.99799        0.26052
N          1.37108        1.92285        0.16257
C          2.62034        1.46127       -0.08872
N          3.53451        0.49457       -0.34206
C          3.03294       -0.78707       -0.33645
C          1.70301       -1.25178        0.00329
C          1.61370       -2.68193        0.03411
N          1.57025       -3.82323        0.03900
H          3.90844       -1.41848       -0.55543
N          3.22165        2.38560       -0.11292
H          2.96487        3.26908        0.32503
H          4.17611        2.50448       -0.45104
C         -0.87927        1.65078        0.39810
C         -2.21382        1.10097        0.13595
N         -2.90179        1.96994        0.15031
H         -3.12781        2.70852       -0.51508
H         -3.79429        1.61927        0.49818
H         -0.82265        2.73149        0.55941
H         -0.61361       -1.52002        1.75838
H         -1.99013       -2.26928       -0.37570
