29
Coordinates from ORCA-job ./opt_b97-3c_parallel
N          0.11602       -4.31098       -0.67954
C          0.48246       -3.24997       -0.46137
C          0.91315       -1.89296       -0.20934
C          2.28234       -2.02011       -0.36271
C          3.26720       -1.04037       -0.06706
C          3.03652        0.28323        0.24483
N          4.05779        0.66026        0.47445
H          5.02944        0.35821        0.51301
H          4.06443        1.67007        0.60970
C          1.81978        1.06198        0.11534
C          2.01309        2.46962        0.40538
N          2.20070        3.57352        0.63751
C          0.51258        0.58251       -0.11688
C         -0.37275        1.64751       -0.58756
C         -1.73903        1.72230       -0.67498
C         -2.72217        0.85804       -0.11125
C         -4.07571        1.34850       -0.13575
N         -5.14404        1.75343       -0.18173
C         -2.47170       -0.39851        0.40236
N         -3.24958       -1.07801        0.81615
H         -3.32709       -2.07028        1.03051
H         -4.20032       -0.71230        0.78650
C         -1.24609       -1.16073        0.31166
C          0.04565       -0.72941       -0.00114
H         -1.36029       -2.19866        0.62138
H         -2.14308        2.64253       -1.08913
H          0.07784        2.55151       -0.98182
H          4.27909       -1.45870       -0.09057
H          2.74099       -2.98446       -0.59249
