23
Coordinates from ORCA-job ./opt_b97-3c_parallel
N         -4.74830       -0.69425        0.22735
C         -3.61295       -0.58614        0.16902
C         -2.19742       -0.39142        0.08876
C         -1.52674       -1.59159       -0.01635
C         -0.10980       -1.80746       -0.08756
C          0.90700       -0.87049       -0.10322
C          2.22904       -1.48380       -0.13713
C          3.44404       -0.86342        0.10968
N          3.86349        0.37249        0.42683
C          2.93141        1.35643        0.24602
C          1.73159        1.49645       -0.35724
C          0.77103        0.56703       -0.10957
N         -0.36117        1.35671       -0.01401
C         -1.66968        0.94144        0.11462
N         -1.97822        2.00116        0.17719
H         -1.85624        2.84897        0.73030
H         -2.96133        1.98129       -0.09551
H          1.67230        2.11581       -1.25119
H          3.77555        1.97014        0.59631
H          4.36422       -1.46260        0.18364
H          2.25964       -2.56396       -0.24897
H          0.16032       -2.85991       -0.12152
H         -2.11123       -2.50996       -0.02334
