28
Coordinates from ORCA-job ./opt_b97-3c_parallel
N         -4.91353       -0.93245       -1.02019
C         -3.88977       -0.57485       -0.65895
C         -2.58504       -0.15797       -0.22230
C         -1.82816       -1.12495        0.51753
C         -0.40848       -1.12668        0.72808
C          0.08814       -2.28528        1.41512
N          0.46430       -3.19367        1.99703
C          0.46800       -0.07822        0.23057
C          0.09404        1.31179        0.46495
N          1.01632        2.28833        0.84654
C          2.29653        1.90321        1.17813
C          2.69456        1.85823       -0.12179
C          2.82018        0.54498       -0.47227
C          1.82038       -0.47640       -0.21395
C          2.13336       -1.81186       -0.65116
N          2.38625       -2.85630       -1.04126
N          3.83999        0.44982       -0.89946
H          4.69185        0.92054       -1.19945
H          3.85247       -0.47513       -1.32786
H          3.23450        2.68401       -0.59426
H          2.50565        2.95313        1.42905
C         -1.14367        1.87667        0.23906
C         -2.29221        1.19430       -0.31251
N         -2.94788        2.01185       -0.68258
H         -3.85245        1.66787       -1.00156
H         -2.91704        3.00345       -0.91251
H         -1.18720        2.96613        0.33158
H         -2.34543       -2.04823        0.76955
