23
Coordinates from ORCA-job ./opt_b97-3c_parallel
N          4.71874        0.30262        0.57007
C          3.59387        0.38342        0.38806
C          2.18181        0.42204        0.16361
C          1.63321       -0.83541        0.06777
N          0.41055       -1.34080       -0.12886
C         -0.72937       -0.57077       -0.31084
C         -1.73447       -1.48564       -0.46625
C         -2.84276       -1.35185        0.31836
N         -3.65099       -0.31507        0.74137
C         -3.22484        0.90820        0.26100
C         -2.19979        1.33859       -0.52977
C         -0.93194        0.86426       -0.33310
C          0.09144        1.86274       -0.15366
C          1.49596        1.67390        0.06937
H          2.09373        2.57535        0.17588
H         -0.23487        2.89917       -0.19161
H         -2.40990        2.00296       -1.36549
H         -3.99452        1.57073        0.68607
H         -3.59838       -1.89565        0.90627
H         -1.79023       -2.09203       -1.36815
N          1.83846       -1.92545        0.09081
H          2.70331       -1.87837        0.63072
H          1.85881       -2.82639       -0.38689
