26
Coordinates from ORCA-job ./opt_b97-3c_parallel
N          4.43892        2.49353        0.00276
C          3.58443        1.73693        0.00216
C          2.55361        0.74457        0.00132
C          1.17600        1.14262        0.00010
C          0.00597        0.28673       -0.00104
C         -1.18628        1.11402       -0.00221
C         -2.57925        0.73259       -0.00431
C         -3.53401        1.79663       -0.00544
N         -4.33110        2.61395       -0.00684
C         -3.11011       -0.60671       -0.00532
N         -2.45015       -1.82030       -0.00413
C         -1.11765       -1.95059       -0.00208
C          0.00708       -1.15994       -0.00085
C          1.16886       -2.01662        0.00066
N          2.53277       -1.76045        0.00160
C          3.06293       -0.53326        0.00165
N          4.00335       -1.12523        0.00237
H          4.61949       -0.30932        0.00535
H          4.63832       -1.92559       -0.00084
H          1.40784       -3.09220        0.00120
H         -1.39987       -3.01565       -0.00222
N         -4.09434       -1.11655       -0.00707
H         -4.69783       -0.29122       -0.00938
H         -4.73777       -1.90963       -0.00770
H         -1.03731        2.19198       -0.00186
H          1.02555        2.22038        0.00004
