30
Coordinates from ORCA-job ./opt_b97-3c_parallel
N          2.42519        3.12519       -1.05865
C          1.50198        2.54640       -0.71478
C          0.35004        1.77648       -0.32456
C          0.40155        0.35109       -0.03506
C         -0.76204       -0.54347       -0.02525
N         -0.63500       -1.94355       -0.03412
C          0.51666       -2.56715       -0.44594
C          1.70600       -2.11046       -0.90731
C          2.19877       -1.40558        0.14833
C          1.69311       -0.09988        0.50407
C          2.43575        0.69766        1.44351
N          3.00423        1.31761        2.21611
N          3.10880       -1.92248        0.52291
H          3.57430       -2.75007        0.89680
H          3.64810       -1.12886        0.87220
H          2.32718       -2.67922       -1.60356
N          0.00655       -3.54547       -0.37207
H          0.67240       -4.31466       -0.44136
H         -0.91417       -3.95834       -0.52827
C         -2.09027       -0.12366        0.09619
C         -3.14347       -1.11158        0.27433
N         -3.67469       -2.11123        0.43054
C         -2.64251        1.15545        0.10103
N         -3.69302        1.49038        0.27234
H         -4.20841        2.36752        0.19987
H         -4.24098        0.89713        0.89496
C         -2.09064        2.39245       -0.20399
C         -0.71611        2.63905       -0.50254
H         -0.53402        3.67771       -0.78260
H         -2.67966        3.31780       -0.27815
