24
Coordinates from ORCA-job ./opt_b97-3c_parallel
N          0.28753       -2.15356        2.35822
C         -0.29866       -1.51295        1.61518
C         -1.00889       -0.72754        0.65350
C         -0.22490        0.12201       -0.07069
C         -0.73852        1.37640       -0.09475
N         -1.88271        1.81470       -0.62531
C         -2.87270        0.98648       -0.99708
N         -3.18815       -0.27744       -0.50370
C         -2.39250       -1.00251        0.37984
H         -3.00075       -1.81314        0.80859
H         -3.85238        1.07731       -1.49015
C          0.10512        2.39921        0.22234
C          1.13995        2.27356        1.10225
C          2.26804        1.39495        0.90407
C          2.25379        0.38062       -0.13573
C          0.99050       -0.09066       -0.66313
C          0.89244       -1.08360       -1.69160
N          0.80235       -1.89897       -2.48737
N          3.28161        0.04233       -0.35649
H          3.32329       -0.87953       -0.78787
H          4.24321        0.34541       -0.21402
H          3.17129        1.59364        1.47674
H          1.25380        3.01323        1.88828
H          0.04489        3.32416       -0.34886
