26
Coordinates from ORCA-job ./opt_b97-3c_parallel
N         -5.08789       -1.71549        0.11603
C         -4.00951       -1.33711        0.08822
C         -2.66464       -0.84890        0.09014
C         -2.56186        0.50398       -0.10854
C         -1.33832        1.29251       -0.06334
C         -1.95045        2.58745       -0.25501
N         -2.15322        3.47124       -0.95129
C          0.00747        0.92289        0.08317
C          0.85241        2.10376        0.19242
C          2.21263        2.22904        0.26409
C          3.21166        1.30869        0.15945
C          3.11250       -0.06326        0.01737
N          4.19178       -0.33839       -0.06375
H          5.17440       -0.07258       -0.04312
H          4.10864       -1.09560       -0.74059
C          1.88288       -0.84561        0.05056
C          2.30532       -2.23537       -0.02399
N          2.58283       -3.18749       -0.59434
C          0.53935       -0.43953        0.11537
N         -0.25348       -1.57729        0.22829
C         -1.60832       -1.77305        0.28667
H         -1.67652       -2.86194        0.43079
H          4.19069        1.80483        0.19751
H          2.55951        3.25227        0.37577
H          0.36007        3.06505        0.25521
H         -3.52662        1.00029       -0.26241
