23
Coordinates from ORCA-job ./opt_b97-3c_parallel
N         -2.51237       -1.92546        0.05446
C         -1.81384       -1.07546        0.02867
N         -2.64218        0.00205       -0.20169
C         -1.92677        1.18039       -0.21952
N         -0.65691        1.35917       -0.04975
C          0.44584        0.68628        0.07172
C          1.53917        1.54081        0.04412
C          2.93659        1.18507       -0.11767
C          3.48748       -0.07131       -0.30360
C          2.81528       -1.30937       -0.05211
C          1.65488       -1.40092        0.63351
C          0.53390       -0.74481        0.25930
N         -0.56205       -1.60895        0.25801
H          1.64365       -1.97379        1.55863
H          3.38528       -2.21011       -0.25538
H          4.52102       -0.15662       -0.62444
H          3.60871        2.02944       -0.23377
H          1.35558        2.61308        0.02437
N         -2.59737        2.03622       -0.38788
H         -3.44914        1.73145        0.07856
H         -2.12646        2.67584        0.24779
H         -2.08138       -2.63161       -0.53761
H         -3.44345       -1.75436       -0.31906
