30
Coordinates from ORCA-job ./opt_b97-3c_parallel
N         -5.17867       -1.26697        0.15163
C         -4.12162       -0.83858        0.21813
C         -2.78283       -0.30012        0.26124
C         -2.61937        0.75555        1.20913
N         -2.34411        1.97959        0.65388
C         -1.20107        2.11938       -0.09595
C         -0.14367        1.22875       -0.12587
C          1.07433        1.99480       -0.27641
N          2.33889        1.54584       -0.23939
C          2.83620        0.31285       -0.10695
N          3.79656        0.87733       -0.10980
H          4.21050        0.33015        0.64904
H          4.55169        0.99227       -0.78916
C          2.21968       -0.91494       -0.03833
C          3.30143       -1.87352        0.07266
N          4.18820       -2.58656        0.16814
C          0.78229       -1.16848       -0.12161
N          0.68798       -2.27487       -0.06483
H          1.12706       -3.17668       -0.25573
H         -0.25219       -2.49106        0.26855
C         -0.27348       -0.23455       -0.13569
C         -1.62777       -0.77807       -0.36894
N         -1.86144       -1.70277       -0.94334
H         -1.31279       -2.43514       -1.39212
H         -2.81939       -1.83535       -1.26970
N          1.43506        3.04098       -0.36694
H          0.65310        3.53030        0.07253
H          1.85563        3.72661       -0.99704
H         -1.83478        3.02078       -0.08762
H         -3.50983        1.10185        1.75816
