26
Coordinates from ORCA-job ./opt_b97-3c_parallel
N          0.42630        3.96880        0.79172
C          0.50008        2.84805        0.58464
C          0.60151        1.43403        0.35808
C          1.96183        0.90961        0.37240
C          2.39701       -0.39066       -0.09131
C          3.77409       -0.57627       -0.42927
N          4.88071       -0.73493       -0.66547
C          1.48478       -1.49710       -0.11292
C          0.35189       -1.51129        0.63366
C         -0.61272       -0.68804        0.15894
N         -1.68545       -1.52442        0.16252
C         -2.86590       -1.07581       -0.40312
C         -3.63998       -0.19590       -1.10157
C         -2.82318        0.80858       -0.69602
N         -1.71285        1.47829       -0.24109
C         -0.58763        0.76587        0.03770
H         -3.27469        1.81229       -0.74303
H         -4.71977       -0.12768       -0.97641
N         -3.28655       -2.01471        0.01287
H         -3.17872       -2.95019        0.40576
H         -4.14425       -1.64448        0.42187
H          0.40648       -1.73341        1.70077
N          1.55051       -2.56009       -0.41750
H          2.55333       -2.45155       -0.57228
H          1.30374       -3.44888       -0.85150
H          2.74958        1.64266        0.52678
