22
Coordinates from ORCA-job ./opt_b97-3c_parallel
N         -5.28478       -0.05865       -1.30704
C         -4.21439        0.00638       -0.91176
C         -2.89174        0.10011       -0.38030
C         -2.32535       -1.10514       -0.01548
N         -1.09469       -1.54861        0.31901
C          0.02659       -0.72302        0.34547
C          1.12927       -1.48414        0.55294
C          2.25692       -1.36178       -0.18670
C          2.91649       -0.10470       -0.36708
C          4.24188       -0.00955       -0.89198
N          5.31427        0.05655       -1.28155
C          2.34875        1.09859       -0.00011
N          1.11650        1.54080        0.33046
C         -0.00506        0.71521        0.34822
C         -1.10862        1.47579        0.55356
C         -2.23306        1.35613       -0.19174
H         -2.76476        2.24543       -0.51601
H         -1.13841        2.12748        1.42415
H          2.62952        2.16196        0.03403
H          2.79047       -2.24992       -0.51140
H          1.15466       -2.13993        1.42087
H         -2.60739       -2.16834        0.01239
