29
Coordinates from ORCA-job ./opt_b97-3c_parallel
N         -5.51015       -0.59082       -0.38571
C         -4.38499       -0.58117       -0.18888
C         -2.96794       -0.59621        0.01953
C         -2.34426        0.47402       -0.57353
C         -0.96778        0.87657       -0.35034
C         -1.01036        2.18645       -0.95439
N         -0.72962        2.99056       -1.71785
C          0.14057        0.16547        0.12099
C          0.12859       -1.27640        0.30197
C          1.20799       -2.13864        0.18620
C          2.51330       -1.83256       -0.32688
C          3.19029       -0.63630       -0.30052
C          2.65675        0.58167        0.26964
C          1.30393        0.88625        0.41183
C          1.19117        2.20587        0.99552
N          0.94742        2.85398        1.90647
N          3.59667        1.16781        0.40444
H          4.60604        1.03519        0.42423
H          3.41430        2.07315        0.83381
H          4.24925       -0.66784       -0.59212
N          3.11546       -2.71460       -0.61452
H          3.94911       -2.62606       -1.19238
H          2.56087       -3.46741       -1.01789
H          1.01365       -3.20486        0.30133
C         -1.02176       -2.02613        0.75809
C         -2.39392       -1.63969        0.79991
H         -3.08078       -2.37081        1.21659
H         -0.85772       -3.03318        1.13181
H         -3.01127        1.14713       -1.12172
