26
Coordinates from ORCA-job ./opt_b97-3c_parallel
N         -5.25408       -0.83194       -0.38581
C         -4.12173       -0.71362       -0.28910
C         -2.70665       -0.57360       -0.12688
C         -1.90813       -1.75390        0.00027
N         -0.55040       -1.87820        0.19541
C          0.37365       -0.86296        0.27403
C          1.48144       -1.56011        0.63230
C          2.59663       -1.35248       -0.10948
N          3.33854       -0.19247       -0.21955
C          2.73761        0.96163        0.14968
N          3.61345        1.63942        0.13549
H          4.62657        1.66273        0.00825
H          3.35036        2.61123        0.30876
C          1.42501        1.38553        0.33824
C          0.22171        0.56647        0.19711
C         -0.96883        1.26607        0.02645
C         -1.16900        2.68693       -0.10099
N         -0.78087        3.34490       -0.95233
C         -2.31809        0.75132       -0.12063
H         -3.12631        1.47743       -0.24718
H          1.27524        2.45022        0.49025
N          3.14642       -2.23025       -0.49880
H          2.48544       -2.91282       -0.87556
H          4.06704       -2.66052       -0.60176
H          1.55975       -1.98187        1.63542
H         -2.41583       -2.73117       -0.02195
