34
Coordinates from ORCA-job ./opt_b97-3c_parallel
N         -4.12633       -1.59228       -2.13015
C         -3.54240       -1.27569       -1.19764
C         -2.65869       -0.40199       -0.46626
C         -1.56340       -1.22298       -0.01712
C         -0.30021       -0.76748        0.33159
C          0.53086       -1.79283        0.93170
N          0.23379       -2.76975        1.36739
H          0.68915       -3.35565        2.06524
H         -0.61677       -2.41299        1.79953
C          1.97608       -1.85941        0.85541
C          2.73659       -1.04722       -0.07650
N          3.61931       -1.70650       -0.24814
H          3.79113       -2.70719       -0.32502
H          4.28262       -1.24977       -0.87186
C          2.42633        0.24308       -0.49810
C          3.49592        0.75687       -1.33728
N          4.06345        1.18700       -2.23190
C          1.40066        1.05448        0.14108
N          1.65661        2.13403        0.04541
H          2.37561        2.60871       -0.49802
H          0.78744        2.64327       -0.11121
C          0.11595        0.61053        0.46841
C         -0.79391        1.55907        1.10917
N         -0.56854        2.47642        1.69675
H          0.41163        2.24120        1.84915
H         -0.90735        2.88382        2.56590
C         -2.15092        1.68294        0.83020
C         -2.88288        0.88478       -0.02577
N         -3.86448        1.34228       -0.27050
H         -4.14553        2.31926       -0.21498
H         -4.35377        0.94232       -1.07047
H         -2.69258        2.55502        1.22971
H          2.45538       -2.75087        1.29231
H         -1.67566       -2.29820       -0.15117
