28
Coordinates from ORCA-job ./opt_b97-3c_parallel
N         -3.45249       -2.49712       -2.32729
C         -3.22529       -2.17377       -1.25537
C         -2.43485       -1.14913       -0.63714
C         -3.17170       -0.10396       -0.14986
C         -2.64226        1.03368        0.52295
C         -3.54637        2.01592        1.04536
N         -4.26566        2.77982        1.49443
C         -1.32809        1.44659        0.51314
C         -0.14509        0.80246        0.17367
C          0.90034        1.69771        0.00828
C          2.23249        1.42606       -0.43828
C          2.99956        2.55398       -0.87559
N          3.13780        3.14218       -1.84581
C          2.97531        0.28791       -0.27204
C          2.53547       -0.91808        0.36080
C          3.64601       -1.77176        0.72773
N          4.52755       -2.42639        1.04581
C          1.18672       -1.28994        0.41527
N          1.06838       -2.32134        0.82853
H          0.19116       -2.33355        1.34624
H          1.76445       -2.74810        1.43841
C         -0.01228       -0.64548        0.05984
C         -1.06224       -1.46543       -0.37076
H         -0.81775       -2.49118       -0.63993
H          4.04115        0.33375       -0.49077
H          0.66191        2.75889        0.02157
H         -1.20547        2.48011        0.83425
H         -4.25535       -0.11840       -0.24842
