28
Coordinates from ORCA-job ./opt_b97-3c_parallel
N          0.68532       -3.59295       -1.02211
C          0.75618       -2.51687       -0.64482
C          0.87722       -1.17720       -0.13248
C          2.13634       -1.06310        0.42360
C          2.92909       -0.05652        0.06654
C          2.47055        0.94048       -0.74014
N          1.42066        1.67849       -0.34642
C          0.33514        1.18043        0.28826
N         -0.33531        2.27231        0.39573
C         -1.55994        2.48453        0.70992
C         -2.68667        1.73595        0.52441
C         -2.63555        0.44498       -0.01587
N         -3.73764        0.30719       -0.11803
H         -4.66920        0.52174        0.23786
H         -3.88208       -0.29231       -0.93142
C         -1.52518       -0.38761       -0.29022
C         -2.03523       -1.61450       -0.85993
N         -2.08798       -1.72193       -1.99781
C         -0.15872       -0.14245       -0.04814
H         -3.61403        2.25683        0.80446
H         -1.76208        3.48097        1.13292
N          2.92645        1.81553       -1.23008
H          3.74309        1.32574       -1.59413
H          2.92780        2.73667       -1.66692
H          3.91401        0.04479        0.52226
N          2.52924       -1.91739        1.39094
H          2.10575       -2.84325        1.46215
H          3.51873       -2.02206        1.61560
