24
Coordinates from ORCA-job ./opt_b97-3c_parallel
N         -3.70064       -0.71922       -0.13644
C         -2.62151       -0.52793       -0.04386
N         -2.98787        0.75793       -0.03275
C         -2.09984        1.76999        0.01319
N         -0.70554        1.67053       -0.00057
C         -0.12318        0.40834       -0.00395
N          0.84872        1.40102       -0.05234
C          2.14777        0.91338       -0.05641
N          2.83981       -0.28831        0.00564
C          2.01080       -1.39985        0.06510
N          2.84188       -2.13468        0.13963
H          2.67680       -2.96939        0.71050
H          3.74427       -2.32909       -0.30813
C          0.70004       -1.81469        0.05535
C         -0.32685       -0.95375        0.01713
C         -1.58010       -1.40929       -0.00747
H         -1.78657       -2.47937        0.00899
H          0.48693       -2.88497        0.06653
N          2.86047        1.75875       -0.12360
H          2.63490        2.75632       -0.13716
H          3.87359        1.72826       -0.25960
H         -3.04480        2.33817        0.02102
H         -4.59530       -0.42094        0.25456
H         -3.92841       -1.43986       -0.82143
