31
Coordinates from ORCA-job ./opt_b97-3c_parallel
N         -5.19428       -1.05019        1.21253
C         -4.17572       -0.75776        0.78719
C         -2.87409       -0.42782        0.25788
C         -1.98505       -1.54201        0.08095
C         -0.94810       -1.50279       -0.79199
C          0.10147       -0.79145       -0.31373
N          1.13297       -1.72623       -0.34737
C          2.41241       -1.45776       -0.05404
N          2.51245       -2.54099       -0.29285
H          3.42634       -2.74180       -0.70889
H          2.11652       -3.46734       -0.10806
C          3.09851       -0.32598        0.33686
C          4.49722       -0.54754        0.54023
N          5.61429       -0.73867        0.66847
C          2.53764        0.98597        0.51606
N          1.22400        1.37251        0.31411
C          0.09522        0.62566       -0.05168
C         -1.08902        1.36603       -0.23402
C         -0.94385        2.80081       -0.40574
N         -0.39025        3.48366       -1.13732
C         -2.47715        0.85673       -0.15372
N         -3.31858        1.58176       -0.24220
H         -4.27455        1.38910        0.06147
H         -3.38709        2.39479       -0.85548
N          2.78018        2.03499        0.78768
H          2.50688        2.98919        0.53474
H          3.60069        2.16130        1.38677
H         -1.13140       -1.56168       -1.86636
N         -1.96524       -2.63229        0.28183
H         -1.81972       -3.44144        0.88690
H         -2.96532       -2.63523        0.07174
