30
Coordinates from ORCA-job ./opt_b97-3c_parallel
N         -4.11902       -1.32827       -1.55135
C         -4.24315       -0.80076       -0.54398
C         -3.00973       -0.19893       -0.13463
C         -1.92571       -1.01124        0.34706
C         -0.58432       -0.65979        0.40109
C          0.21770       -1.85500        0.59986
N          1.54985       -2.09966        0.28256
C          2.51295       -1.20513       -0.16144
N          3.05062       -2.17084       -0.31731
H          3.43925       -1.87352       -1.21782
H          3.75033       -2.81893        0.05452
C          2.44969        0.18135       -0.15531
C          3.80582        0.49494       -0.55956
N          4.02805        0.67598       -1.66874
C          1.32111        1.02253        0.22619
N          1.72092        2.06171        0.22594
H          2.43458        2.42730        0.86132
H          1.91644        2.49999       -0.67785
C         -0.03174        0.68867        0.36060
C         -0.87199        1.85267        0.64373
N         -2.18949        2.08282        0.28340
C         -3.07722        1.16600       -0.24236
H         -3.94380        1.77149       -0.55687
N         -1.09274        2.92521        0.83544
H         -1.62466        3.54137        1.45724
H         -0.22782        3.43452        0.64596
N          0.20259       -2.95346        0.77360
H          0.48162       -3.43579        1.63313
H         -0.50852       -3.56463        0.36302
H         -2.19157       -2.06213        0.43949
