23
Coordinates from ORCA-job ./opt_b97-3c_parallel
N         -1.87932       -2.83292       -1.46759
C         -1.68707       -1.78414       -1.05134
C         -1.48430       -0.48417       -0.48597
C         -0.24024       -0.20558        0.02571
C          0.26771       -1.06659        0.95949
C          1.24084       -1.84146        0.40121
C          2.39843       -1.36480       -0.14141
C          2.77849        0.02863       -0.19422
C          1.94083        1.08094        0.14945
C          0.50513        0.92348        0.27743
N         -0.00574        2.12606        0.59829
C         -1.37239        2.17277        0.45054
N         -2.60564        1.68051        0.09252
C         -2.63349        0.39188       -0.42567
H         -3.69794        0.38615       -0.70277
H         -1.45667        3.20815        0.81375
H          2.35719        2.08244        0.25057
N          3.81844        0.27076       -0.46927
H          4.69789       -0.19297       -0.68623
H          3.84375        1.17774       -0.93124
H          3.15443       -2.08341       -0.45195
H          1.17260       -2.91421        0.55491
H         -0.31063       -1.40033        1.81541
