23
Coordinates from ORCA-job ./opt_b97-3c_parallel
N         -0.96697       -2.27904       -1.16995
C         -1.24686       -1.14547       -0.50337
C         -2.48867       -0.76292       -0.18918
C         -2.71740        0.41082        0.47188
N         -2.13902        1.63396        0.74706
C         -0.88236        1.73752        0.18853
C         -0.12059        0.88640       -0.56094
C          0.99370        1.55234       -0.93679
N          2.26472        1.53260       -0.54293
C          2.74346        0.64314        0.34222
N          2.17173       -0.50490        0.89861
C          0.90091       -1.02560        0.64472
N          1.20481       -1.94356        1.17946
H          0.46072       -2.42058        0.66749
H          1.59971       -2.62936        1.82234
C         -0.13458       -0.41302       -0.15528
H          3.70337        1.18485        0.33489
H          0.94560        2.39299       -1.64679
H         -1.05152        2.70488        0.68512
H         -3.71663        0.52452        0.92045
H         -3.33912       -1.37393       -0.48733
H         -0.31769       -2.25487       -1.95648
H         -1.73540       -2.88749       -1.45598
