27
Coordinates from ORCA-job ./opt_b97-3c_parallel
N          4.56906        0.58651       -1.37889
C          3.55814        0.36709       -0.89498
C          2.27625        0.13306       -0.28750
C          1.91816       -1.14487        0.14441
N          2.57539       -2.03888        0.14429
H          2.45674       -2.97426       -0.24206
H          3.56733       -1.81786        0.05872
C          0.57971       -1.65768        0.45612
C         -0.62465       -0.96881        0.33313
N         -1.68786       -1.84830        0.24818
C         -2.91228       -1.32672       -0.00922
N         -3.79761       -0.32936       -0.27042
C         -3.25628        0.93712       -0.25294
N         -4.19946        1.46088       -0.49096
H         -4.09015        2.34636       -0.98486
H         -5.20233        1.27665       -0.46353
C         -1.89910        1.31089        0.09716
C         -0.72572        0.48452        0.36342
C          0.35807        1.18651        0.78003
C          1.42115        1.25940       -0.05514
N          1.40565        2.35318       -0.23030
H          2.38097        2.27686       -0.51607
H          1.31711        3.25488        0.23313
H          0.50125        1.34622        1.84970
H         -1.73131        2.38343        0.15596
H         -3.10600       -2.40904        0.05519
H          0.49105       -2.73403        0.63128
