27
Coordinates from ORCA-job ./opt_b97-3c_parallel
N          3.91456        2.34103       -0.45664
C          3.13165        1.52513       -0.29200
C          2.12502        0.50500       -0.11932
C          2.90251       -0.63958       -0.25434
C          2.48809       -1.99074       -0.09556
C          1.21715       -2.41635        0.15479
N          0.03806       -1.71462        0.17226
C         -0.28933       -0.35876        0.08700
C          0.68415        0.73113        0.07032
C          0.40304        2.08456        0.23731
C         -0.83193        2.78838        0.32501
C         -2.10456        2.33486        0.15102
C         -2.53892        0.97541       -0.02207
C         -1.75828       -0.24466        0.04404
C         -2.56090       -1.45273       -0.00038
N         -3.14716       -2.43391       -0.03480
N         -3.64199        1.06142       -0.12408
H         -4.25913        1.86302        0.00277
H         -4.21405        0.32810       -0.54152
H         -2.86431        3.12205        0.16510
H         -0.72943        3.86045        0.47302
H          1.20809        2.80012        0.34100
N          0.67570       -3.36658        0.31114
H         -0.26180       -3.76980        0.34292
H          1.31269       -4.12986        0.53742
H          3.27303       -2.73857       -0.17160
H          3.97718       -0.57867       -0.44563
