25
Coordinates from ORCA-job ./opt_b97-3c_parallel
N          0.53121        2.48701        1.10087
C          0.65755        1.46650        0.23633
C          1.90096        1.29207       -0.27239
C          2.59135        0.03035       -0.25754
N          2.03044       -1.18825        0.15177
C          0.70073       -1.41441        0.32112
C         -0.46655       -0.69396        0.10552
C         -1.67453       -1.48872        0.27290
N         -2.94692       -1.09112        0.10208
C         -3.30980        0.04650       -0.49123
N         -2.58968        0.84926       -1.18889
C         -1.58280        1.42589       -0.63491
C         -0.43987        0.74243       -0.09416
H         -1.87060        2.45693       -0.89163
H         -4.39967        0.19686       -0.54486
H         -2.48058       -2.22382        0.42830
N          1.02526       -2.45084        0.54762
H          0.07720       -2.82879        0.54711
H          1.62456       -3.25701        0.73228
N          3.65370       -0.13608       -0.51781
H          4.22375        0.68024       -0.28949
H          4.25853       -0.73633       -1.08031
H          2.46452        2.15573       -0.61821
H          1.31744        2.89396        1.60678
H         -0.33626        2.67231        1.60599
