23
Coordinates from ORCA-job ./opt_b97-3c_parallel
N         -3.36418       -1.34774       -0.26437
C         -2.42087       -0.82631       -0.03381
N         -3.01955        0.37081       -0.08133
C         -2.27394        1.45590        0.16811
N         -1.01093        1.56582        0.43855
C          0.02955        0.83728        0.18054
C          1.03354        1.67782       -0.18297
C          2.30261        1.34555        0.13591
N          3.13334        0.25344        0.16961
C          2.52169       -0.92412       -0.05216
N          3.48325       -1.46539       -0.08535
H          4.35762       -1.44779       -0.61016
H          3.60683       -2.16232        0.64814
C          1.21083       -1.37832       -0.12928
C         -0.00197       -0.61092        0.09672
C         -1.17481       -1.30653        0.25264
H         -1.11994       -2.29983        0.69480
H          1.05226       -2.44687       -0.25233
H          2.75526        2.33225        0.31898
H          0.85452        2.46671       -0.91427
H         -3.22195        1.99372        0.01256
H         -4.28771       -1.11716        0.10001
H         -3.46736       -2.21538       -0.78594
