22
Coordinates from ORCA-job ./opt_b97-3c_parallel
N         -1.77856       -3.05594       -0.84842
C         -1.42981       -1.98567       -0.64737
C         -1.00929       -0.63855       -0.35459
C         -2.03618        0.32901       -0.02562
N         -2.05242        1.40028        0.26990
C         -1.32002        2.21961        0.44026
C         -0.09178        2.19800       -0.14849
C          0.75857        1.12702       -0.08995
C          2.16159        1.43401        0.15722
C          3.23949        0.49229        0.39094
N          3.40082       -0.88553        0.39671
C          2.32548       -1.53392       -0.03406
N          1.19042       -1.20068       -0.52582
C          0.34234       -0.25661       -0.30426
H          2.30423       -2.63149       -0.10644
H          4.27459        0.74210        0.66725
H          2.42287        2.48180        0.26867
H          0.21969        3.07183       -0.71606
H         -1.91111        2.96883       -0.10852
N         -3.14340        0.24612        0.03075
H         -3.03785       -0.61203        0.56669
H         -3.95077        0.73466        0.41200
