25
Coordinates from ORCA-job ./opt_b97-3c_parallel
N         -2.37120       -3.41675       -0.06557
C         -2.27624       -2.27808       -0.05410
C         -2.09184       -0.85158       -0.03590
C         -3.36283       -0.14378       -0.02831
N         -3.61874        1.17377        0.05831
C         -2.71128        2.14332        0.02928
N         -1.46986        1.94715       -0.21262
C         -0.56428        1.04325       -0.06910
C          0.57292        1.84762       -0.06403
C          1.93661        1.36987        0.02715
N          2.58285        2.27412       -0.00526
H          2.33290        3.26258        0.02669
H          3.59526        2.24885       -0.13006
C          2.37655        0.05894        0.12811
C          3.79218       -0.18355        0.19995
N          4.90669       -0.42623        0.25390
C          1.55263       -1.11561        0.16594
N          0.18154       -1.26909        0.10767
C         -0.77962       -0.32288        0.00477
N          1.56230       -2.22093        0.23604
H          2.56697       -2.38335        0.15651
H          1.15136       -3.13042        0.45031
H          0.46251        2.94170       -0.13855
H         -3.32762        3.05141        0.12217
H         -4.43701       -0.38367       -0.02613
