28
Coordinates from ORCA-job ./opt_b97-3c_parallel
N          1.59077        2.65352       -0.11615
C          1.50916        1.54866       -0.05236
C          2.81642        1.10186        0.05880
C          3.27281       -0.24778        0.19235
C          2.52984       -1.39929        0.20542
C          1.15582       -1.55381        0.08405
C          0.11184       -0.64263       -0.04766
C         -1.21597       -1.27279       -0.16018
N         -2.44169       -0.69569       -0.23662
C         -2.50900        0.68467       -0.23742
N         -2.11739        1.91619       -0.21779
C         -0.86861        1.58593       -0.15708
C          0.26482        0.80409       -0.08322
H         -0.97781        2.68208       -0.19413
N         -3.61372        0.74264       -0.26168
H         -4.31169        0.14139       -0.69786
H         -4.07275        1.18645        0.53250
N         -1.94842       -2.10036       -0.21518
H         -2.48557       -2.77660       -0.75749
H         -1.01489       -2.49732       -0.11505
N          1.02860       -2.65787        0.13181
H          0.82261       -3.14401        1.00341
H          1.67377       -3.25644       -0.38420
H          3.17658       -2.27688        0.32087
H          4.35019       -0.34032        0.28808
H          3.65751        1.80087        0.07135
H          1.77447        2.91453       -1.08461
H          2.21526        3.22028        0.45767
