23
Coordinates from ORCA-job ./opt_b97-3c_parallel
N         -2.09338       -3.02428       -0.73711
C         -1.63185       -1.99671       -0.54769
C         -1.11128       -0.68670       -0.27843
C          0.27218       -0.42746       -0.19340
C          0.77412        0.92749       -0.11847
N          1.99408        1.44479        0.10744
C          3.16058        0.74076        0.31195
C          3.40748       -0.59624        0.16584
C          2.52245       -1.59923       -0.11967
C          1.15671       -1.58205       -0.25585
H          0.73637       -2.56980       -0.40696
H          2.97406       -2.58348       -0.20774
H          4.44292       -0.90053        0.28937
H          4.07442        1.31548        0.52797
C          0.18874        2.12990       -0.34129
C         -0.97586        2.27832        0.32011
N         -2.13399        1.56480        0.48772
C         -2.18428        0.24128        0.06929
N         -3.27365        0.36404        0.22723
H         -4.15729        0.87286        0.21603
H         -3.51318       -0.60844        0.42288
H         -0.81694        3.33157        0.59953
H          0.37112        2.68174       -1.26429
