28
Coordinates from ORCA-job ./opt_b97-3c_parallel
N         -4.78186       -0.04721       -0.43390
C         -3.68847        0.13597       -0.16319
C         -2.29529        0.38571        0.13653
C         -2.12683        1.48782        1.03724
C         -0.95809        2.30256        1.10961
C          0.21425        2.12141        0.31465
C          0.80749        0.83359        0.04990
C          2.15200        1.05428       -0.43738
N          3.26465        0.23418       -0.37828
C          3.21337       -0.99912        0.13373
C          2.20979       -1.87012        0.44654
C          0.84756       -1.63939        0.29865
N          0.46326       -2.66373        0.50023
H          0.60390       -3.66140        0.65631
H         -0.52703       -2.48980        0.66954
C          0.12639       -0.44939        0.09949
C         -1.24671       -0.47783       -0.20128
N         -1.59310       -1.34882       -0.80559
H         -1.10648       -2.18843       -1.11658
H         -2.47896       -1.33084       -1.31088
H          2.60455       -2.84663        0.75860
H          4.19714       -1.48032        0.24819
N          2.98506        1.71044       -0.75423
H          3.72478        1.92719       -1.42276
H          2.13839        2.13548       -1.13107
H          0.86305        2.99238        0.26966
H         -1.08256        3.26366        1.59982
H         -3.01970        1.92223        1.48154
