27
Coordinates from ORCA-job ./opt_b97-3c_parallel
N         -0.26373       -4.08762        0.59445
C         -0.08846       -2.96914        0.43345
C          0.14609       -1.55227        0.17980
C          1.42658       -1.26351       -0.30499
C          2.11038        0.00362       -0.06598
C          3.57063        0.03318       -0.15861
N          4.70913       -0.00644       -0.05370
C          1.47936        1.20026        0.28741
C          0.11993        1.57340       -0.10576
C         -0.17853        2.99680       -0.25646
N         -0.37719        4.11982       -0.35274
C         -0.99349        0.71592       -0.21857
N         -2.13018        1.34500       -0.65551
C         -3.35388        0.72685       -0.51256
C         -4.40160       -0.09286       -0.23686
C         -3.38757       -0.82757        0.29381
N         -2.14216       -1.31075        0.63016
C         -0.97988       -0.62127        0.23153
H         -3.72743       -1.68202        0.89866
H         -5.22967        0.24680        0.38049
H         -3.79876        1.58996       -1.03133
N          2.11231        2.06231        0.62281
H          3.12078        2.04909        0.76876
H          1.80121        3.00734        0.84296
N          2.10915       -2.07712       -0.66459
H          3.12223       -2.10323       -0.76934
H          1.77228       -3.01661       -0.87087
