31
Coordinates from ORCA-job ./opt_b97-3c_parallel
N         -4.66143       -0.88111        1.39899
C         -3.65998       -0.62690        0.91131
C         -2.38452       -0.34952        0.29264
C         -2.00082        0.89383       -0.23966
N         -2.85384        1.60067       -0.36479
H         -3.84244        1.47830       -0.14675
H         -2.80010        2.38735       -1.01129
C         -0.61329        1.38173       -0.41573
C         -0.48855        2.76725       -0.81902
N         -0.18424        3.10365       -1.86832
C          0.55778        0.65104       -0.14360
C          1.74592        1.39966        0.24779
C          3.00189        0.88875        0.50864
N          3.74862        1.63363        0.84261
H          3.43987        2.60451        0.89345
H          4.67419        1.61770        1.27081
C          3.50606       -0.38521        0.39949
C          2.81362       -1.49888        0.00845
N          1.54029       -1.74646       -0.30859
C          0.54140       -0.77990       -0.32246
C         -0.51089       -1.49747       -0.78623
C         -1.52383       -1.48857        0.11775
N         -1.53945       -2.56870        0.37319
H         -2.55734       -2.53822        0.43927
H         -1.25661       -3.41314        0.86903
H         -0.72597       -1.53091       -1.85443
N          3.08547       -2.55726       -0.15420
H          2.74156       -3.47852       -0.42423
H          4.09142       -2.57529       -0.31818
H          4.56079       -0.54217        0.62951
H          1.61034        2.46775        0.40609
