27
Coordinates from ORCA-job ./opt_b97-3c_parallel
N         -5.00019       -0.32193        0.45070
C         -3.86268       -0.30638        0.34305
C         -2.43373       -0.31198        0.17345
C         -1.99216        0.98830        0.05032
C         -0.61649        1.43849       -0.04353
C         -0.80441        2.86710        0.00073
N         -0.71978        3.80622       -0.64497
C          0.57009        0.71276       -0.12548
C          1.77992        1.54598       -0.09490
C          3.08284        1.13214        0.14873
N          3.71958       -0.03004        0.39597
C          3.02563       -1.17212        0.07837
N          3.79595       -1.91015        0.36372
H          4.77812       -1.83396        0.62822
H          3.60867       -2.90757        0.26603
C          1.92289       -1.23196       -0.70433
C          0.73286       -0.71880       -0.29676
C         -0.29270       -1.71823       -0.15458
C         -1.69223       -1.54338        0.13499
N         -2.13964       -2.55248        0.22894
H         -2.08686       -3.43260        0.73961
H         -3.12101       -2.42970       -0.02029
H          0.06406       -2.74417       -0.27362
H          2.00916       -1.61573       -1.71981
H          3.72756        2.01545        0.27928
H          1.65403        2.62182       -0.12385
H         -2.77586        1.75373        0.08269
