25
Coordinates from ORCA-job ./opt_b97-3c_parallel
N         -4.82085       -0.40213        0.08837
C         -3.69404       -0.21207        0.10115
C         -2.26888        0.00168        0.08740
C         -1.48520       -1.18708        0.09097
C         -0.06245       -1.35556        0.01195
C          0.27919       -2.75848       -0.01917
N          0.51072       -3.87813       -0.03492
C          0.97394       -0.31506       -0.03389
N          2.20464       -0.95955       -0.18140
C          3.42509       -0.43506       -0.23862
C          3.97545        0.80229       -0.13815
C          3.20341        1.97432        0.05695
C          1.83367        2.06132        0.12293
C          0.78288        1.13728        0.06929
C         -0.44314        1.79789        0.12340
C         -1.79992        1.29919        0.08999
N         -2.45440        2.19969        0.09532
H         -3.46190        2.07477        0.18268
H         -2.31199        2.97217       -0.55295
H         -0.37957        2.88812        0.17481
H          1.56470        3.10588        0.24327
H          3.78424        2.88865        0.13070
H          5.05166        0.92871       -0.19877
H          3.92829       -1.40302       -0.38081
H         -2.06516       -2.10813        0.11459
