21
Coordinates from ORCA-job ./opt_b97-3c_parallel
N         -0.24554       -3.57144       -0.30018
C          0.21977       -2.53296       -0.18046
C          0.23311       -1.42428       -0.10355
C          1.60287       -1.39974       -0.01473
N          2.73075       -0.59959        0.05605
C          2.40737        0.74260        0.07722
N          1.19629        1.19906        0.08906
C         -0.07275        0.94211        0.03951
C         -0.85353        2.03802        0.10520
C         -2.21875        2.00986        0.06899
N         -3.27431        1.19968       -0.06735
C         -3.03588       -0.10953       -0.20701
N         -1.82514       -0.56538       -0.16513
C         -0.55458       -0.32794       -0.07446
H         -3.94019       -0.72411       -0.33839
H         -2.93196        2.84374        0.15696
H         -0.38994        3.01897        0.19664
N          3.30560        1.37990        0.07673
H          3.34153        2.30554       -0.34945
H          4.27358        1.07634        0.17824
H          2.59977       -1.86952        0.03918
