27
Coordinates from ORCA-job ./opt_b97-3c_parallel
N         -3.20384       -2.84500       -0.27810
C         -2.66537       -1.84292       -0.17630
C         -1.93675       -0.60947       -0.06602
C         -0.52360       -0.58222        0.24135
C          0.02586       -1.75111        0.66489
C          0.87782       -2.42933       -0.13009
N          2.17932       -2.02428       -0.33988
C          2.56671       -0.72012       -0.03295
N          3.47005       -1.34150       -0.23108
H          4.28247       -1.84806        0.12141
H          3.84206       -0.57523       -0.79472
C          1.76883        0.39823        0.26297
C          2.86041        1.33931        0.33242
N          3.58674        1.95681       -0.29780
C          0.30395        0.53401        0.23462
C         -0.05826        1.87076        0.22237
C         -1.37853        2.42865        0.11626
N         -1.43297        3.53004        0.18707
H         -2.34606        3.97743        0.25498
H         -0.76768        4.18110        0.60031
C         -2.58145        1.81928       -0.16205
C         -2.82491        0.41892       -0.30805
H         -3.86080        0.18552       -0.55053
H         -3.46656        2.44007       -0.29837
H          0.71215        2.63303        0.31624
H          0.65917       -3.48552       -0.35247
H         -0.34017       -2.21519        1.57954
