28
Coordinates from ORCA-job ./opt_b97-3c_parallel
N         -0.58040       -3.04545        1.58045
C         -0.94135       -2.09913        1.05368
C         -1.33820       -0.92244        0.32851
C         -2.62149       -0.41500        0.27451
C         -2.92404        0.80412       -0.17664
C         -1.97702        1.71978       -0.52691
N         -0.70439        2.01783       -0.23974
C          0.14780        1.06655        0.17856
N          1.32739        1.58758        0.70769
C          2.49926        0.86809        0.56504
N          3.18517       -0.18397       -0.03223
C          2.38934       -1.02757       -0.79488
N          3.11301       -1.74645       -1.23240
H          4.11309       -1.75974       -1.45315
H          2.77024       -2.62440       -1.63128
C          1.02781       -1.14913       -0.74513
C         -0.07225       -0.34131       -0.11545
H          0.57179       -2.09206       -1.05261
N          3.23008        1.48780        1.13161
H          4.22328        1.29399        1.26519
H          3.05746        2.32206        1.69692
N         -2.09129        2.72667       -0.96267
H         -3.08085        2.62827       -1.19349
H         -1.79165        3.58546       -1.42491
H         -3.96517        1.12637       -0.15018
N         -3.59156       -1.20478        0.77075
H         -4.58433       -0.97318        0.71340
H         -3.47002       -2.19759        0.97116
