23
Coordinates from ORCA-job ./opt_b97-3c_parallel
N         -5.42546       -0.14176       -0.25283
C         -4.29196       -0.05913       -0.13508
C         -2.87110        0.01054       -0.00991
C         -2.09655       -1.13679        0.33772
N         -0.72134       -1.24039        0.42683
C          0.25066       -0.25981        0.27045
C         -0.00241        1.15126        0.05387
N         -1.17451        1.84786       -0.17921
C         -2.37723        1.26841       -0.22654
H         -2.92000        2.19404       -0.47314
C          0.86773        2.19134        0.11927
C          2.09878        1.92782       -0.36152
N          3.10875        1.00127       -0.44649
C          2.83872       -0.23822        0.01277
C          1.53513       -0.80430        0.37079
C          1.92957       -2.15905        0.66113
N          2.49069       -3.09376        0.31560
N          3.93806       -0.25816       -0.15200
H          3.87006       -1.26155       -0.33378
H          4.93432       -0.06204       -0.05454
H          2.33169        2.93452       -0.74267
H          0.73584        2.98219        0.85883
H         -2.60605       -2.09746        0.51018
