28
Coordinates from ORCA-job ./opt_b97-3c_parallel
N         -2.82579       -2.81870       -1.16535
C         -2.52844       -1.79400       -0.75424
C         -2.14395       -0.48921       -0.28094
C         -0.81605       -0.10509        0.19304
C         -0.44794        1.26605        0.41013
N         -1.17743        2.43595        0.38342
C         -2.50235        2.59731        0.06043
C         -3.43728        1.69002       -0.35915
C         -3.26706        0.28198       -0.54963
H         -4.17696       -0.18550       -0.92856
H         -4.42415        2.07704       -0.59264
H         -2.72555        3.66929        0.16928
C          0.73312        1.69396        0.91924
C          1.72793        1.46626        0.02334
C          2.26637        0.15511       -0.22309
C          3.56278        0.12687       -0.86259
N          4.60043        0.11640       -1.34241
C          1.59680       -0.96539        0.29856
C          0.13589       -1.09267        0.50645
C         -0.28352       -2.37543        1.02728
N         -0.58199       -2.78789        2.05115
N          2.26327       -1.85442        0.40647
H          2.00255       -2.59815        1.05239
H          3.27054       -1.92563        0.27062
N          2.05039        2.50455       -0.19514
H          2.89299        2.55091       -0.76592
H          1.44117        3.26172       -0.50111
H          0.92377        1.64419        1.99054
