27
Coordinates from ORCA-job ./opt_b97-3c_parallel
N         -4.93024        0.39658        0.35721
C         -3.79663        0.26146        0.29962
C         -2.36221        0.12044        0.19463
C         -1.62761        1.09028        0.94912
C         -0.63751        1.77057        0.17201
C         -0.70626        3.20673        0.16971
N         -0.78439        4.34652        0.20095
C          0.56117        1.05758       -0.23098
N          1.50540        1.91312       -0.78615
C          2.79312        1.62365       -0.96289
C          3.66478        0.72763       -0.41372
C          3.27426       -0.35474        0.42827
C          1.97487       -0.83584        0.52773
C          2.22007       -2.02276        1.30970
N          1.90566       -2.38340        2.34874
C          0.74227       -0.35267        0.07453
C         -0.30368       -1.24155       -0.21567
C          0.02744       -2.60449       -0.57638
N          0.39144       -3.44355       -1.26247
C         -1.69899       -0.89548       -0.49411
N         -2.39910       -1.58286       -1.02582
H         -2.05204       -2.38695       -1.54759
H         -3.40493       -1.54444       -1.18444
H          4.14006       -0.87305        0.84626
H          4.73167        0.85843       -0.56381
H          3.29421        2.43516       -1.51237
H         -2.25816        1.74998        1.54222
