29
Coordinates from ORCA-job ./opt_b97-3c_parallel
N          1.38872        3.13715        1.97142
C          0.78380        2.34756        1.40866
C         -0.00600        1.35367        0.73498
C         -1.41563        1.61762        0.73046
C         -2.33794        0.99003       -0.17025
C         -3.45956        1.81887       -0.54506
N         -4.35938        2.47237       -0.80959
C         -2.28408       -0.44351       -0.43428
N         -3.19451       -0.79604       -0.97639
H         -4.08862       -0.33459       -1.13756
H         -3.35663       -1.79429       -1.10409
C         -1.40000       -1.33329        0.17969
C         -1.83100       -2.71585        0.29358
N         -2.17714       -3.77175        0.02095
C          0.01193       -1.05700        0.44050
N          0.67108       -2.10779        0.97419
C          2.03373       -2.24254        1.12352
C          3.00218       -1.83205        0.24398
C          2.89809       -0.62910       -0.55150
N          3.87531       -0.67350       -1.08417
H          4.64591       -1.28898       -1.33877
H          4.07501        0.23136       -1.50744
C          1.90953        0.32452       -0.33631
C          2.28942        1.53914       -1.02247
N          2.61625        2.48669       -1.57260
C          0.62512        0.23076        0.20532
H          3.90758       -2.44696        0.23420
H          2.27054       -3.17955        1.64953
H         -1.70568        2.59317        1.11568
