30
Coordinates from ORCA-job ./opt_b97-3c_parallel
N         -2.89126       -3.24786        1.30983
C         -1.97750       -2.66856        0.94190
C         -0.80052       -1.97802        0.49738
C         -0.85902       -0.64216        0.06676
C         -2.09502       -0.18575       -0.38212
C         -2.50183        1.04872       -0.83776
N         -3.47840        1.12662       -1.35073
H         -4.19604        0.43417       -1.56031
H         -3.85563        2.02510       -1.64881
C         -1.94380        2.33007       -0.52174
C         -0.83252        2.50515        0.27528
N         -0.79196        3.57508        0.56587
H         -0.02250        3.98787        1.09174
H         -1.51067        4.29460        0.49985
C          0.22900        1.55612        0.52609
C          1.33520        1.98238        1.35109
N          2.21493        2.27424        2.01950
C          0.30994        0.22807        0.09144
C          1.55579       -0.25902       -0.29663
C          2.75655        0.40098       -0.74129
N          3.72561        0.88203       -1.11084
C          2.01122       -1.54495       -0.51228
N          1.56530       -2.71484       -0.04765
C          0.37289       -2.79420        0.65626
H          0.30487       -3.83807        1.00217
N          2.71332       -2.36693       -0.79848
H          3.12998       -3.25206       -1.09221
H          3.37933       -1.65270       -1.09877
H         -2.53617        3.19957       -0.82840
H         -2.85349       -0.94952       -0.54179
