28
Coordinates from ORCA-job ./opt_b97-3c_parallel
N          3.23322        1.07675       -2.16705
C          3.50532        1.03653       -1.05615
C          2.48669        0.33188       -0.33923
C          1.24642        0.97511        0.02676
C          0.18979        0.45023        0.72832
C         -0.81855        1.37003        0.86749
N         -2.05909        1.77664        0.39653
C         -2.58505        0.95206       -0.58770
N         -2.19391       -0.19287       -1.06349
C         -1.40216       -1.11594       -0.60588
N         -1.89011       -2.05745       -0.90910
H         -2.89102       -2.25538       -0.94384
H         -1.45085       -2.75475       -1.51078
C         -0.12351       -0.80828       -0.00228
C          0.66636       -1.74247        0.77294
N          2.04027       -1.90187        0.66051
C          2.83612       -0.96619        0.00067
H          3.82750       -1.41500       -0.17549
N          0.61930       -2.66304        1.39063
H         -0.26334       -3.04987        1.72787
H          1.33178       -3.27556        1.79656
N         -3.54695        1.37213       -0.92847
H         -4.14138        1.10814       -1.71520
H         -3.91268        2.26626       -0.59867
N         -0.89771        2.14818        1.64657
H          0.00355        2.44928        2.01700
H         -1.59703        2.68682        2.15956
H          1.16976        2.00992       -0.30521
