26
Coordinates from ORCA-job ./opt_b97-3c_parallel
N          3.34323        2.65782       -0.18503
C          2.26948        2.27187       -0.14085
C          0.94267        1.72341       -0.08198
C          0.15561        2.82841       -0.21053
N         -1.14230        3.08407       -0.14721
C         -2.06702        2.09106        0.07182
C         -1.99109        0.65547        0.12100
C         -3.30257        0.11670        0.34615
N         -4.33464       -0.32338        0.56056
C         -0.78070       -0.18242        0.00879
C         -1.09280       -1.60517       -0.12929
C         -0.25241       -2.69923       -0.19022
N         -0.70454       -3.69546       -0.35211
H         -1.72294       -3.73377       -0.30618
H         -0.41570       -4.57187       -0.78655
C          1.16125       -2.80868        0.00918
C          2.00878       -1.75647        0.21726
N          1.76403       -0.40628        0.15097
C          0.58723        0.32451        0.01683
N          3.08778       -1.59360        0.38836
H          3.84981       -0.91945        0.46811
H          3.46537       -2.48091        0.71989
H          1.60519       -3.80462       -0.00079
H         -2.13821       -1.86208       -0.25777
H         -2.91258        2.79426        0.13003
H          0.08917        3.92096       -0.32916
