24
Coordinates from ORCA-job ./opt_b97-3c_parallel
N         -0.85347       -0.23445       -3.00366
C         -1.14393       -0.03919       -1.91702
C         -1.42714        0.21199       -0.53757
C         -2.45843        0.95837       -0.03603
C         -2.24467        2.17513        0.46992
C         -0.98484        2.70722        0.49172
N          0.31517        2.40003        0.34048
C          0.70241        1.12858        0.11119
N          2.06817        0.98674       -0.13577
C          2.53146       -0.30593       -0.34645
C          2.16284       -1.62672       -0.37000
C          0.98540       -2.01256        0.12611
C          0.11065       -1.10244        0.65213
C         -0.40593       -1.20597        1.97974
N         -0.83339       -1.24502        3.03724
C         -0.20929        0.09593        0.07754
H          0.71114       -3.06613        0.10477
H          2.83093       -2.37920       -0.78981
N          3.57210        0.02539       -0.52601
H          4.34536       -0.38493        0.00157
H          4.00077        0.42480       -1.36367
H         -1.06423        3.79279        0.66131
H         -3.08042        2.75063        0.86491
H         -3.46762        0.55006       -0.04757
