31
Coordinates from ORCA-job ./opt_b97-3c_parallel
N         -4.35989       -2.58779        0.95830
C         -3.64956       -1.79317        0.54818
C         -2.72996       -0.78620        0.08888
C         -1.36735       -1.20354       -0.06964
C         -0.17264       -0.38649       -0.20511
C          1.03957       -1.20781       -0.28993
N          1.07204       -2.29094       -0.53502
H          1.72507       -3.02442       -0.81408
H          0.20631       -2.50003       -1.03334
C          2.37787       -0.88969       -0.04461
C          3.63895       -1.60924       -0.03329
N          4.70817       -1.69054       -0.42860
C          2.90491        0.36829        0.44889
N          2.23685        1.53150        0.36502
C          0.98154        1.81740       -0.01552
N          1.32318        2.87119        0.06791
H          1.77853        3.75173       -0.18265
H          0.39404        3.13522        0.39425
C         -0.15252        1.06192       -0.24266
C         -1.27470        1.89822       -0.61516
C         -2.61059        1.61242       -0.73806
C         -3.28570        0.42329       -0.28280
N         -4.35365        0.72375       -0.31479
H         -4.92122        0.05527        0.20616
H         -5.01174        1.31818       -0.81760
H         -3.20784        2.46468       -1.07657
H         -1.03396        2.93400       -0.83448
N          3.70688        1.04984        0.81882
H          4.43315        0.44834        0.41962
H          4.06298        1.31288        1.74015
H         -1.23378       -2.26844        0.10297
