28
Coordinates from ORCA-job ./opt_b97-3c_parallel
N         -5.26110       -1.83268        0.02048
C         -4.24924       -1.30792       -0.06756
C         -2.98396       -0.62669       -0.14372
C         -2.13330       -1.54289       -0.67559
N         -0.81570       -1.67706       -0.73114
C          0.13323       -0.71828       -0.39090
C         -0.13188        0.72471       -0.38930
N          0.81636        1.68415       -0.72900
C          2.13406        1.54954       -0.67478
C          2.98464        0.63295       -0.14437
C          4.25001        1.31462       -0.06755
N          5.26146        1.84061        0.02239
C          2.67191       -0.72408        0.21828
C          1.42862       -1.38690       -0.14997
C          1.47579       -2.83525       -0.08929
N          1.54152       -3.97471       -0.01846
N          3.57744       -1.24346        0.60585
H          3.45964       -2.17177        1.00936
H          4.40520       -0.83825        1.04031
H          2.04248        2.57949       -1.05196
C         -1.42668        1.39286       -0.14564
C         -1.47362        2.84004       -0.08129
N         -1.53911        3.98084       -0.00816
C         -2.67100        0.72897        0.22145
N         -3.57589        1.24865        0.60987
H         -3.45922        2.17716        1.01317
H         -4.40317        0.84254        1.04442
H         -2.04044       -2.57207       -1.05422
