25
Coordinates from ORCA-job ./opt_b97-3c_parallel
N         -3.93691       -0.84233        0.62508
C         -2.80883       -0.74981        0.47748
C         -1.39513       -0.69310        0.25338
C         -0.82461       -1.79818       -0.36292
N          0.44445       -2.28093       -0.43264
C          1.55606       -1.62553        0.12015
N          2.29695       -2.44814        0.17814
H          3.16757       -1.93315        0.33111
H          2.54357       -3.42621        0.34010
C          1.57574       -0.22724        0.47074
C          2.72664        0.37331        1.07250
N          3.67290        0.81168        1.53609
C          0.63491        0.67487        0.08412
C          0.87097        1.54519       -0.94971
C          0.32613        2.88002       -1.06188
N         -0.58203        3.37009       -0.19376
C         -1.11838        2.66343        0.80952
N         -1.06066        1.45633        1.27035
C         -0.59394        0.44246        0.61570
H         -1.77675        3.42173        1.26258
H          0.30421        3.81633       -1.64013
H          1.57033        1.27044       -1.73381
N         -1.12925       -2.76676       -0.81416
H         -2.10174       -2.48472       -0.96214
H         -1.11012       -3.75468       -1.07487
