30
Coordinates from ORCA-job ./opt_b97-3c_parallel
N         -4.27825       -2.21199        1.06488
C         -3.45583       -1.51630        0.68246
C         -2.39384       -0.63753        0.24124
C         -3.03423        0.50357       -0.19774
C         -2.41456        1.63824       -0.80538
C         -1.11437        2.03908       -0.54355
N         -1.12786        3.11004       -0.83659
H         -0.12342        3.06888       -0.99992
H         -1.54163        3.49365       -1.68438
C         -0.08824        1.30431        0.17350
C          0.82612        2.12839        0.80741
C          1.98495        1.70847        1.53136
C          2.77664        0.62632        1.24843
C          2.62104       -0.29590        0.15732
C          3.83691       -1.01969       -0.13984
N          4.81540       -1.56356       -0.37045
C          1.38205       -0.60485       -0.40704
N          1.43366       -1.39740       -1.19050
H          2.17578       -1.49815       -1.88146
H          0.55488       -1.57691       -1.67465
C          0.10525       -0.09483       -0.12841
C         -1.02697       -1.02909       -0.07188
N         -0.94455       -2.13791       -0.01178
H         -1.49112       -2.92112        0.34199
H          0.03547       -2.35968        0.15783
H          3.72908        0.57594        1.76931
H          2.38367        2.42840        2.23921
H          0.54529        3.16011        0.99936
H         -3.14210        2.31425       -1.26621
H         -4.12243        0.55618       -0.19030
