26
Coordinates from ORCA-job ./opt_b97-3c_parallel
N          2.62181        2.69069        0.86188
C          2.27669        1.64715        0.55059
C          1.82134        0.33267        0.20958
C          2.90301       -0.59259        0.35646
N          2.96382       -1.95369        0.22360
C          1.93239       -2.78758       -0.10351
C          0.61879       -2.52402       -0.38012
C         -0.09214       -1.26924       -0.40856
C         -1.38394       -1.38091       -0.80509
C         -2.25904       -1.15613        0.20655
N         -2.65118        0.17342        0.28333
C         -1.81217        1.22011       -0.12732
C         -0.41238        1.19101       -0.29534
C         -0.33108        2.62037       -0.47651
N         -0.37020        3.30750       -1.39013
C          0.49101        0.03582       -0.11911
N         -2.85226        1.62425       -0.05590
H         -3.42363        2.22531        0.54195
H         -2.61860        2.20784       -0.86383
N         -2.97734       -1.87416        0.64590
H         -2.51845       -2.70289        1.02844
H         -3.96908       -1.99686        0.85618
H         -1.66590       -1.90658       -1.71747
H          0.03251       -3.40238       -0.63831
H          2.67988       -3.59276       -0.03063
H          3.97147       -0.57970        0.61926
