24
Coordinates from ORCA-job ./opt_b97-3c_parallel
N         -3.75903       -0.76635        1.33071
C         -2.72170       -0.88217        0.86272
C         -1.40009       -0.99028        0.31265
C         -0.95458       -2.34489        0.18914
N         -0.26134       -3.15965       -0.06019
C          0.69635       -2.62877       -0.13882
C          1.53300       -1.46957       -0.14712
C          2.93962       -1.70200       -0.31292
N          4.06174       -1.84698       -0.47485
C          0.96694       -0.19250       -0.01717
N          1.88469        0.78314        0.16401
C          1.48775        2.06686        0.33885
N          0.58760        3.07308        0.31402
C         -0.62530        2.66375       -0.17669
C         -1.11794        1.31033       -0.32758
C         -2.38180        1.33231       -1.00806
N         -3.36365        1.36575       -1.59112
C         -0.51330        0.06545       -0.00438
H         -1.18682        3.58606       -0.39681
N          2.41154        2.57372        0.66619
H          2.46243        3.54069        0.98663
H          3.24015        2.11316        1.04246
H          1.15297       -3.62641       -0.25414
H         -1.63105       -3.16819        0.47552
