23
Coordinates from ORCA-job ./opt_b97-3c_parallel
N         -3.30498       -0.78573        1.09981
C         -2.57077       -0.33787        0.07131
C         -2.89489        0.84809       -0.48307
C         -2.00426        1.96243       -0.44949
C         -0.67542        1.88108       -0.06991
C          0.18607        0.69944       -0.04389
N          1.43422        1.15136        0.24686
C          2.46013        0.22334        0.24112
N          2.91755       -1.06343        0.03675
C          1.90931       -1.89345       -0.41341
N          0.69264       -1.53114       -0.66594
C         -0.18205       -0.60773       -0.40997
C         -1.54984       -1.04083       -0.46293
H         -1.72808       -2.06632       -0.77628
H          2.05366       -2.96179       -0.63835
N          3.35199        0.79738        0.54333
H          4.29600        0.43049        0.65586
H          3.39868        1.78572        0.78665
H         -0.19223        2.84130        0.09438
H         -2.45050        2.93004       -0.65921
H         -3.91783        1.05087       -0.78814
H         -3.37972       -1.78666        1.27690
H         -4.21964       -0.37610        1.28714
