24
Coordinates from ORCA-job ./opt_b97-3c_parallel
N         -0.56708       -3.04600       -1.81416
C         -0.84589       -2.10091       -1.23855
C         -1.13427       -0.90776       -0.50340
C         -0.03121       -0.31237        0.05824
C          0.63184       -1.07937        0.97272
C          2.02154       -1.42315        0.84739
N          2.94040       -0.74583        0.04329
C          2.71889        0.51141       -0.40399
C          1.68242        1.42073       -0.25457
C          0.34186        0.99683        0.06213
N         -0.51800        2.06415        0.27883
C         -1.85408        1.70848        0.33984
N         -2.85742        0.77431        0.16650
C         -2.50361       -0.47727       -0.33639
H         -3.45296       -0.95121       -0.63362
N         -2.45073        2.59561        0.61234
H         -2.27748        3.35973        1.26605
H         -3.38294        2.76977        0.23373
H          1.84650        2.48118       -0.43571
N          3.77527        0.56932       -0.73182
H          4.65152        0.11658       -0.46182
H          4.03903        1.21132       -1.48123
H          2.54585       -2.24017        1.36872
H          0.06882       -1.66884        1.69207
