26
Coordinates from ORCA-job ./opt_b97-3c_parallel
N          5.41214        0.86128       -0.09913
C          4.30828        0.57228       -0.14351
C          2.93713        0.17439       -0.17137
C          1.87139        1.12379       -0.15894
C          0.45702        0.83817       -0.12256
C         -0.19420        2.12645       -0.09218
N         -1.51908        2.51086       -0.03814
C         -2.52138        1.63607        0.04048
C         -2.59525        0.26963        0.08581
C         -4.02064        0.46980        0.20033
N         -5.15642        0.56691        0.29437
C         -1.56916       -0.65379        0.01687
N         -2.15926       -1.59429        0.09321
H         -3.06051       -1.76005       -0.35996
H         -2.36514       -1.49813        1.08943
C         -0.19357       -0.46709       -0.10532
C          0.50273       -1.74022       -0.23295
N          1.84463       -2.07608       -0.29224
C          2.83911       -1.18519       -0.23561
H          3.63151       -1.94957       -0.27145
N          0.51074       -2.84646       -0.30298
H         -0.48605       -2.70794       -0.12720
H          0.57913       -3.71799       -0.82811
H         -2.80996        2.69998        0.03450
H         -0.14285        3.22641       -0.09284
H          2.17915        2.16820       -0.14209
