31
Coordinates from ORCA-job ./opt_b97-3c_parallel
N          1.97605        3.15345       -1.82268
C          2.29209        2.58625       -0.88249
C          1.50846        1.45667       -0.43490
C          2.40979        0.40748       -0.45931
C          2.19619       -0.94481       -0.01607
C          3.43662       -1.67970        0.11326
N          4.40717       -2.26688        0.24832
C          0.93431       -1.55084        0.06697
N          0.98471       -2.65614        0.20538
H          0.40216       -3.34959        0.67231
H          1.86735       -3.13071        0.01120
C         -0.37004       -1.04071       -0.01195
C         -1.44542       -1.88901       -0.32644
C         -2.76309       -1.48017       -0.75300
C         -3.37035       -0.26309       -0.52349
N         -3.05965        0.56638        0.54359
C         -1.81562        0.54148        1.14658
N         -2.42317        1.21674        1.78239
H         -1.68543        1.91371        1.64900
H         -2.59787        1.19492        2.78868
C         -0.64228        0.33859        0.32086
C          0.20835        1.43251        0.20084
N         -0.13220        2.46737        0.42854
H         -0.20900        2.96563       -0.46126
H          0.65841        2.90042        0.91057
N         -4.38619        0.03785       -0.84075
H         -4.54480       -0.11213       -1.83859
H         -5.29098        0.32434       -0.46369
H         -3.32335       -2.23417       -1.30202
H         -1.25331       -2.93314       -0.56196
H          3.44882        0.59298       -0.74513
