27
Coordinates from ORCA-job ./opt_b97-3c_parallel
N         -4.14334       -2.87479        0.08985
C         -3.30649       -2.10034        0.03830
C         -2.23007       -1.15674       -0.00357
C         -2.71500        0.12402       -0.11708
C         -1.94078        1.32829       -0.14100
C         -2.75158        2.50630       -0.25217
N         -2.72751        3.29645       -1.07746
C         -0.58662        1.53651        0.00893
C          0.49833        0.58105        0.04327
C          1.71364        1.21841        0.31841
N          3.01184        0.85504        0.44650
C          3.36942       -0.40702        0.00977
N          4.45557       -0.55761        0.16153
H          4.78152       -1.49537       -0.07861
H          5.30184       -0.03229        0.38532
C          2.68199       -1.31637       -0.71910
C          1.47614       -1.73822       -0.26777
C          0.33993       -0.86504       -0.07940
C         -0.87950       -1.63490       -0.02331
H         -0.79240       -2.71896       -0.03337
H          1.29247       -2.80975       -0.27738
H          2.97833       -1.54576       -1.74275
N          2.20161        2.18090        0.58088
H          1.35758        2.39409        1.11462
H          2.76438        3.03269        0.62403
H         -0.27782        2.57825        0.06160
H         -3.79682        0.26012       -0.17678
