27
Coordinates from ORCA-job ./opt_b97-3c_parallel
N         -5.16904       -0.60126       -1.20910
C         -4.08208       -0.42813       -0.90136
C         -2.72396       -0.24685       -0.49648
C         -2.19848        0.91477       -0.98586
N         -1.12346        1.64252       -0.68674
C          0.05437        1.09936       -0.19195
C          0.88302        2.09389        0.46039
C          0.35837        3.37717        0.84058
N         -0.05338        4.38631        1.18409
C          2.26177        1.86789        0.78633
C          3.09755        1.03937       -0.02910
C          2.68345       -0.17798       -0.68641
N          3.60861       -0.54091       -1.17839
H          3.51795       -1.53898       -1.36413
H          4.60699       -0.33984       -1.16933
C          1.54141       -0.94232       -0.23632
C          1.58015       -2.35986       -0.49437
N          1.62110       -3.47736       -0.73519
C          0.28419       -0.29479        0.11959
C         -0.71705       -1.12417        0.78603
C         -0.34106       -2.11712        1.75071
N         -0.05131       -2.88458        2.54697
C         -2.13044       -1.04631        0.52779
H         -2.76490       -1.79017        1.00115
H          4.14069        1.35912       -0.07620
H          2.77344        2.68151        1.29323
H         -2.71445        1.66650       -1.60378
