31
Coordinates from ORCA-job ./opt_b97-3c_parallel
N         -5.32138       -0.59954        0.28892
C         -4.18994       -0.50950        0.15748
C         -2.75452       -0.44062       -0.00600
C         -1.83234        0.68324       -0.00330
N         -2.51307        1.54137        0.18480
H         -1.89638        2.24073        0.59830
H         -3.46349        1.82621        0.42245
C         -0.37465        0.62613       -0.21246
C          0.17757        1.97164       -0.39819
N         -0.26974        2.97999       -0.52131
H         -0.03694        3.96609       -0.40668
H         -1.15208        2.95188       -1.03101
C          1.55293        2.41787       -0.55953
C          2.74156        1.66920       -0.32905
C          2.86292        0.32448       -0.04145
C          4.30014        0.26570        0.16081
N          5.17285       -0.22563        0.71202
C          1.81795       -0.68877       -0.08518
N          2.40737       -1.62495        0.05837
H          3.29286       -1.76338       -0.43325
H          2.66332       -1.42213        1.02692
C          0.42689       -0.60097       -0.23335
C         -0.12801       -1.94607       -0.40337
N         -1.40374       -2.47021       -0.49125
C         -2.50199       -1.74616       -0.29019
H         -3.01592       -2.71323       -0.41096
N         -0.05231       -3.04873       -0.52023
H          0.85964       -2.84453       -0.10834
H          0.10749       -3.81604       -1.17252
H          3.60624        2.33555       -0.39892
H          1.80508        3.46780       -0.76994
