26
Coordinates from ORCA-job ./opt_b97-3c_parallel
N         -4.54000       -0.63281        0.91734
C         -3.45127       -0.47268        0.60636
C         -2.08246       -0.29144        0.17734
C         -1.50817        0.95711       -0.12385
N         -2.24905        1.78940       -0.18527
H         -1.98112        2.70012       -0.55603
H         -3.26713        1.75646       -0.19873
C         -0.06877        1.30322       -0.16187
C          0.27103        2.70962       -0.26057
N          0.33803        3.78027       -0.65852
C          1.01348        0.42576        0.01885
N          2.24748        1.00288        0.36152
C          3.33566        0.17753        0.54775
C          4.18076       -0.88267        0.65620
C          3.10436       -1.60519        0.24394
N          1.84370       -1.99138       -0.15758
C          0.86493       -1.00053       -0.22288
C         -0.22346       -1.57655       -0.78134
C         -1.34183       -1.50695       -0.02007
N         -1.52608       -2.59283        0.10577
H         -0.95402       -3.35784        0.45995
H         -2.44971       -2.69517        0.52338
H         -0.29862       -1.64293       -1.86664
H          3.38886       -2.65960        0.10915
H          5.11322       -0.90738        0.09756
H          3.86326        1.11885        0.76390
