27
Coordinates from ORCA-job ./opt_b97-3c_parallel
N         -1.76192       -2.70017       -1.57673
C         -0.98666       -2.78359       -0.73820
C         -0.34402       -1.53797       -0.40744
C          0.74960       -2.38242       -0.40312
N          1.99930       -2.15486        0.12867
C          2.51661       -0.91200        0.41215
C          2.07219        0.33569       -0.15917
C          3.15127        1.27407       -0.28644
N          4.03331        1.99463       -0.36390
C          0.65010        0.71111       -0.27780
C          0.48815        2.09903       -0.69547
C         -0.66908        2.83146       -0.69899
N         -1.89884        2.71305       -0.19792
C         -2.35121        1.53779        0.35829
C         -1.76175        0.21965        0.30724
C         -2.66199       -0.76424        0.84344
N         -3.38996       -1.51282        1.30444
C         -0.43921       -0.13086       -0.03195
N         -3.26460        2.11804        0.60538
H         -3.96199        1.44669        0.93288
H         -3.70847        3.03184        0.71323
H         -0.62265        3.86886       -1.06762
H          1.34318        2.64488       -1.07579
N          3.38596       -1.50164        0.76900
H          3.74831       -2.32060        1.26216
H          4.15739       -0.83074        0.77751
H          1.36377       -3.29691       -0.48734
