25
Coordinates from ORCA-job ./opt_b97-3c_parallel
N         -4.32873       -0.87811        0.96094
C         -3.22549       -0.89083        0.66479
C         -1.82304       -0.94186        0.33969
C         -1.28939       -2.26321        0.52258
N         -0.15792       -2.81320       -0.05250
C          0.89610       -2.05109       -0.34519
C          1.19033       -0.73682       -0.06112
C          2.60968       -0.64925       -0.28425
N          3.73159       -0.62659       -0.48682
C          0.26022        0.37174        0.08012
C          0.89106        1.56705        0.45275
C          2.03671        1.88236        1.27173
N          2.07231        1.40117        2.30551
C          0.47775        2.86618       -0.04133
C         -0.30927        3.07714       -1.12928
C         -1.43615        2.41342       -0.79824
N         -1.97592        1.24716       -0.32580
C         -1.13524        0.22305       -0.03681
H         -2.36111        2.96244       -1.03357
H         -0.36412        4.06363       -1.58621
H          0.95547        3.76113        0.35810
N          1.17395       -3.09184       -0.62775
H          1.11897       -4.07295       -0.90695
H          2.05398       -2.75344       -1.02025
H         -1.96945       -3.07824        0.81856
