28
Coordinates from ORCA-job ./opt_b97-3c_parallel
N         -0.35213       -3.83095        0.04697
C         -0.69521       -2.74106        0.06551
C         -1.03946       -1.34726        0.07984
C         -2.38817       -1.23307       -0.18706
C         -3.17288       -0.04067       -0.14979
C         -2.72188        1.24151        0.06425
C         -1.38285        1.75089        0.18939
C         -0.19051        1.04723        0.24460
C          0.91316        1.91052        0.22705
C          2.25036        1.62103       -0.03093
N          2.93872        0.48741       -0.29645
C          2.29093       -0.70601       -0.03359
N          2.84599       -1.63751       -0.25491
H          2.33571       -2.47799       -0.53554
H          3.79909       -1.95222       -0.06654
C          1.17884       -0.78805        0.73795
C         -0.03467       -0.33335        0.31459
H          1.26694       -1.14833        1.76355
N          3.08951        2.32564       -0.18634
H          3.97495        2.65109        0.20562
H          2.81445        3.04042       -0.86222
H          0.70799        2.97698        0.30110
H         -1.34643        2.83989        0.22923
N         -3.51441        2.01115        0.06142
H         -4.47168        1.66068        0.07459
H         -3.57710        3.00219        0.29030
H         -4.23858       -0.20536       -0.30838
H         -2.97265       -2.13246       -0.37531
