29
Coordinates from ORCA-job ./opt_b97-3c_parallel
N         -4.88576       -0.94043        0.94957
C         -3.82175       -0.67509        0.63144
C         -2.47476       -0.37620        0.20601
C         -2.03599        0.90470       -0.17330
N         -2.84586        1.65683       -0.31207
H         -3.83715        1.48427       -0.14013
H         -2.80850        2.48601       -0.90549
C         -0.64228        1.39972       -0.18010
C         -0.43412        2.82708       -0.34075
N          0.05011        3.43725       -1.17737
C          0.52181        0.64375        0.04251
N          1.70292        1.33668        0.37890
C          2.91689        0.67823        0.46573
N          3.65343       -0.48910        0.34988
C          2.87334       -1.58659        0.02615
N          1.58139       -1.57179       -0.07830
C          0.54728       -0.78881       -0.15478
C         -0.48222       -1.50745       -0.66186
C         -1.59183       -1.50608        0.11942
N         -1.60119       -2.59304        0.33658
H         -1.37351       -3.45912        0.82400
H         -2.62068       -2.56092        0.29715
H         -0.57503       -1.63943       -1.74111
N          3.40755       -2.53699       -0.14990
H          2.95988       -3.43174       -0.35430
H          4.40533       -2.69559       -0.30032
N          3.48353        1.58753        0.73856
H          3.23818        2.57907        0.69900
H          4.42624        1.56577        1.13027
