32
Coordinates from ORCA-job ./opt_b97-3c_parallel
N         -5.75993        0.13022       -0.12982
C         -4.62368        0.05171       -0.08797
C         -3.19678       -0.02317       -0.00519
C         -2.53110        0.95778       -0.70728
N         -1.25582        1.36931       -0.73806
C         -0.13704        0.68643       -0.23540
C          0.93912        1.59002        0.14745
C          0.60998        2.99653        0.27109
N          0.28401        4.08516        0.38661
C          2.21172        1.09826        0.66181
N          2.82878        1.83735        1.22324
H          3.84429        1.72556        1.21054
H          2.67668        2.81413        1.47926
C          2.91889        0.00661       -0.00195
C          4.37314        0.00128        0.01464
N          5.51285        0.01965        0.00530
C          2.21900       -1.07645       -0.68611
N          2.84405       -1.81073       -1.24669
H          2.69352       -2.78944       -1.49470
H          3.85945       -1.69929       -1.22394
C          0.94496       -1.57621       -0.18284
C          0.61647       -2.98048       -0.33154
N          0.29176       -4.06693       -0.46628
C         -0.12716       -0.68234        0.23413
N         -1.23240       -1.37823        0.74479
C         -2.57228       -1.03387        0.79761
N         -2.87032       -1.89938        1.42807
H         -3.84348       -1.86530        1.74475
H         -2.51726       -2.78083        1.81100
N         -2.70898        1.84916       -1.35217
H         -3.68155        1.80662       -1.67104
H         -2.37417        2.74311       -1.72536
