24
Coordinates from ORCA-job ./opt_b97-3c_parallel
N         -4.35867       -1.37058       -1.30008
C         -3.34613       -1.06326       -0.86765
C         -2.07860       -0.69289       -0.28401
C         -1.18376       -1.79511       -0.11380
C         -0.12627       -1.72038        0.71731
C          0.95061       -1.04791        0.25884
C          0.87194        0.40922        0.22641
N          1.97466        1.23781        0.05525
C          3.16459        0.66664       -0.25155
N          4.02059       -0.34546       -0.52655
C          3.44143       -1.58804       -0.44759
C          2.08899       -1.91064       -0.04749
H          1.90102       -2.97761        0.03125
H          4.39404       -2.06956       -0.71389
H          3.54593        1.69893       -0.26608
C         -0.34400        1.08736        0.45079
C         -0.28157        2.50257        0.76525
N         -0.36650        3.63603        0.63189
C         -1.71355        0.57400        0.20621
N         -2.59957        1.24965        0.26303
H         -3.60501        1.12963        0.15101
H         -2.36963        2.16607       -0.11897
H         -0.12467       -2.21463        1.68592
H         -1.49525       -2.76311       -0.49691
