29
Coordinates from ORCA-job ./opt_b97-3c_parallel
N         -3.56901       -3.50856       -0.36678
C         -2.91300       -2.57318       -0.32141
C         -2.05981       -1.42301       -0.24062
C         -2.67510       -0.15726       -0.04828
C         -2.04644        1.12555       -0.01465
C         -3.01400        2.19857        0.05766
N         -3.74857        3.07065        0.11979
C         -0.59708        1.35358        0.02387
N         -0.40172        2.45163        0.09299
H         -0.79718        2.62969       -0.83300
H         -0.96849        3.00505        0.74014
C          0.52731        0.39589        0.00031
C          1.77875        1.09508        0.29419
N          3.09972        0.68703        0.35667
C          3.62004       -0.55288        0.05328
N          4.71322       -0.46139        0.19709
H          5.22478       -0.59474        1.07081
H          5.37536       -0.69485       -0.54516
C          2.96041       -1.66600       -0.38865
C          1.54774       -1.86951       -0.51027
C          0.45058       -1.03386       -0.29268
C         -0.73439       -1.75220       -0.40505
H         -0.60749       -2.81391       -0.60900
H          1.36046       -2.89510       -0.81876
H          3.56031       -2.54248       -0.62727
N          2.39264        1.98104        0.56464
H          1.56235        2.38895        0.12893
H          2.64195        2.63332        1.30909
H         -3.76116       -0.16932        0.00880
