26
Coordinates from ORCA-job ./opt_b97-3c_parallel
N         -0.59850       -3.77701        0.17598
C         -0.18913       -2.71149        0.16740
C          0.25980       -1.34862        0.15109
C          1.61914       -1.34422       -0.11064
C          2.48252       -0.19716       -0.19040
C          3.85129       -0.56110       -0.42301
N          4.84646       -0.03635       -0.22218
C          2.16767        1.14158       -0.08333
N          0.93469        1.74088        0.10380
C         -0.30046        1.13782        0.30055
C         -1.20606        2.15726        0.44013
C         -2.41454        2.08265       -0.19477
N         -3.37857        1.13077       -0.48986
C         -3.05536       -0.13476       -0.02655
N         -3.95083       -0.70706       -0.33465
H         -4.04546       -1.72243       -0.40439
H         -4.90136       -0.34792       -0.44560
C         -1.97005       -0.57600        0.68223
C         -0.66553       -0.26077        0.38030
H         -2.15634       -1.11183        1.61304
H         -2.91370        2.95585       -0.64462
H         -1.04763        2.93445        1.18738
N          2.60178        2.16109       -0.10582
H          3.53616        1.77328       -0.26348
H          2.76625        3.14725        0.10366
H          2.12036       -2.30460       -0.24981
