28
Coordinates from ORCA-job ./opt_b97-3c_parallel
N         -5.39407        0.05293        0.19587
C         -4.25371        0.13517        0.18165
C         -2.82023        0.26388        0.12976
C         -2.05938       -0.84036       -0.20721
N         -2.49297       -1.83271       -0.46551
H         -2.10812       -2.69262       -0.85182
H         -3.49082       -1.84293       -0.67071
C         -0.62176       -1.02069       -0.17199
C          0.40947       -0.09478        0.00836
C          0.25317        1.35349        0.03519
C          1.25915        2.29518       -0.11696
C          2.59929        2.17509       -0.35372
C          3.43284        1.09705       -0.32098
C          3.02239       -0.24510        0.03258
C          1.72200       -0.74623        0.15960
C          1.87230       -2.14014        0.53234
N          1.97942       -3.23048        0.86047
N          4.05145       -0.67390        0.09132
H          4.00551       -1.64104        0.40914
H          5.03969       -0.43120        0.05181
H          4.48238        1.36095       -0.50600
H          3.10389        3.11683       -0.54809
H          0.96734        3.34123       -0.12681
C         -0.99383        2.05649        0.26682
C         -2.32530        1.56751        0.41957
H         -3.06865        2.32478        0.65438
H         -0.95440        3.13389        0.39748
H         -0.31469       -2.04271       -0.38822
