23
Coordinates from ORCA-job ./opt_b97-3c_parallel
N         -4.76227       -0.66215        0.11954
C         -3.63250       -0.49560        0.14399
C         -2.20960       -0.28998        0.13400
C         -1.71700        1.00599        0.09933
N         -2.33223        1.93167        0.05823
H         -2.05777        2.77810       -0.43650
H         -3.24692        1.66959       -0.30595
C         -0.34299        1.47121        0.13932
C          0.82255        0.71868        0.11785
C          0.92770       -0.72674        0.05422
N         -0.07522       -1.67569        0.10673
C         -1.43469       -1.48801        0.17417
H         -1.72357       -2.54908        0.21330
C          2.04258       -1.51821        0.02425
C          3.26805       -1.00809       -0.20698
N          4.04566        0.10988       -0.23082
C          3.34233        1.22568        0.00076
C          2.00991        1.57447        0.14790
H          1.83249        2.63890        0.26545
H          4.11107        2.01200        0.00945
H          4.06867       -1.72600       -0.43820
H          1.99232       -2.59512        0.19892
H         -0.20380        2.55459        0.15748
