25
Coordinates from ORCA-job ./opt_b97-3c_parallel
N          4.36013        0.73930        0.00974
C          3.21821        0.78335       -0.00473
C          1.78831        0.85507       -0.05870
C          1.30008        1.85452       -0.88623
C         -0.03011        2.43059       -0.81765
C         -1.01699        2.06843        0.09278
C         -1.03481        0.79069        0.75558
C         -2.03072        0.39614        1.70966
N         -2.84061        0.06438        2.44450
C         -0.35720       -0.29264        0.28761
C         -0.72783       -1.30174       -0.56924
C         -1.78493       -0.96447       -1.47240
N         -2.64958       -0.68928       -2.16631
C         -0.17485       -2.63792       -0.60886
N          0.84451       -3.03437        0.18091
C          1.45501       -2.21759        1.04865
N          1.39809       -0.98528        1.43511
C          0.93738       -0.06964        0.63825
H          2.25675       -2.77951        1.55190
H         -0.41762       -3.51497       -1.22738
N         -1.77702        2.86378        0.20345
H         -2.65941        2.55884        0.61183
H         -1.81892        3.87938        0.13953
H         -0.15526        3.33117       -1.41822
H          2.00014        2.39657       -1.51676
