30
Coordinates from ORCA-job ./opt_b97-3c_parallel
N         -3.47187       -3.35729        0.60748
C         -2.76076       -2.48503        0.40746
C         -1.82091       -1.40892        0.16842
C         -2.47909       -0.13447        0.21691
C         -1.94758        1.18050       -0.00944
C         -3.01303        2.15923       -0.08136
N         -3.84618        2.93508       -0.17236
C         -0.59173        1.53791       -0.02568
N         -0.42885        2.64209       -0.07481
H         -1.21893        3.27873       -0.18126
H          0.39467        3.19314       -0.31390
C          0.59197        0.67137        0.02282
C          1.81766        1.42156        0.27684
N          3.09443        1.08220        0.68853
C          3.45230       -0.20798        0.68476
N          3.11008       -1.13131       -0.28304
C          1.81968       -1.29305       -0.75830
N          2.49079       -2.05622       -1.20046
H          2.83748       -2.23550       -2.14326
H          1.64812       -2.62366       -1.09390
C          0.59721       -0.69846       -0.21115
C         -0.47807       -1.59744       -0.17879
N         -0.26549       -2.68376       -0.34954
H         -0.97112       -3.07753       -0.97553
H         -0.43030       -3.12191        0.55915
H          4.44891        0.00052        1.10327
N          2.42957        2.32002        0.49171
H          3.07028        3.08728        0.69518
H          1.54677        2.55798        0.94222
H         -3.55728       -0.17794        0.37119
