23
Coordinates from ORCA-job ./opt_b97-3c_parallel
N         -2.56481       -2.89412       -0.46832
C         -2.08566       -1.86487       -0.34739
C         -1.53592       -0.54651       -0.18055
C         -0.12352       -0.44298       -0.25339
N          0.59169       -1.59054       -0.44647
C          1.96011       -1.60987       -0.23788
N          3.16973       -1.02515        0.07774
C          3.06718        0.35004        0.13898
N          4.09610        0.62295        0.44091
H          4.34857        1.51017        0.87907
H          4.97037        0.09733        0.38140
C          2.01302        1.05270       -0.37796
C          0.68261        0.79048       -0.14861
N          0.27902        2.04772        0.09460
C         -1.06243        2.21231        0.24748
N         -2.36110        1.81111        0.28916
C         -2.55626        0.46582        0.06079
N         -3.64860        0.62938        0.17162
H         -4.42665        1.28616        0.25997
H         -4.08663       -0.29363        0.13401
H         -1.23327        3.28384        0.44325
H          2.25098        1.68967       -1.23283
H          2.15999       -2.68527       -0.37546
