27
Coordinates from ORCA-job ./opt_b97-3c_parallel
N         -5.03889       -0.89934       -0.11809
C         -3.90579       -0.75482       -0.08211
C         -2.47601       -0.53311       -0.05371
C         -1.82699        0.75670        0.00787
N         -2.58281        1.57608        0.04917
H         -2.46934        2.52895        0.39322
H         -3.58388        1.44884       -0.10030
C         -0.39794        1.04578       -0.03791
C         -0.06873        2.46395       -0.05805
N          0.24121        3.56369       -0.07406
C          0.71263        0.06914       -0.03866
N          1.91758        0.78395       -0.11617
C          3.17706        0.35125       -0.08526
C          3.79719       -0.85040        0.07005
C          3.08858       -2.07229        0.19412
C          1.72684       -2.24958        0.14438
C          0.62479       -1.39547        0.03197
C         -0.54277       -2.14553       -0.01511
C         -1.91800       -1.78513       -0.09085
H         -2.56838       -2.65979       -0.14057
H         -0.46030       -3.22935       -0.00923
H          1.51190       -3.31217        0.22566
H          3.71937       -2.94991        0.30747
H          4.88156       -0.91836        0.09835
N          3.52574        1.39315       -0.20370
H          4.54414        1.43323       -0.21668
H          3.20922        2.34974       -0.36838
