26
Coordinates from ORCA-job ./opt_b97-3c_parallel
N         -4.17499       -2.28422       -0.92180
C         -3.62534       -1.73465       -0.08273
C         -2.70185       -0.64776        0.07247
C         -1.36139       -0.94353        0.02736
C         -0.18298       -0.07689        0.06540
C          1.02496       -0.79123        0.10033
N          1.10729       -1.87965        0.32327
H          1.88008       -2.46072        0.64471
H          0.49460       -1.74441        1.12548
C          2.35641       -0.41835       -0.09142
C          3.61192       -1.15621       -0.06278
N          4.58038       -1.76323       -0.01887
C          2.88849        0.80869       -0.44749
C          2.15441        2.02549       -0.51977
C          0.83726        2.26858       -0.22215
C         -0.28051        1.37819        0.05090
C         -1.40075        2.16228        0.31155
C         -2.76914        1.82909        0.55774
C         -3.39044        0.56383        0.37569
H         -4.47266        0.53851        0.47508
H         -3.43140        2.65691        0.79123
H         -1.27315        3.23762        0.38887
H          0.60009        3.32706       -0.26858
H          2.75302        2.89411       -0.77723
H          3.94702        0.97072       -0.67338
H         -1.17089       -2.00315       -0.11548
