27
Coordinates from ORCA-job ./opt_b97-3c_parallel
N         -4.71404       -1.66125        0.04235
C         -3.72568       -1.09352        0.12642
C         -2.48346       -0.36285        0.19520
C         -2.53376        0.74796        1.09143
N         -2.27614        1.99216        0.57441
C         -1.21780        2.17898       -0.28710
C         -0.03686        1.46080       -0.26732
C          1.03638        2.28002       -0.55457
C          2.39016        2.08171       -0.60622
C          3.11099        0.91413       -0.22817
C          2.57195       -0.30550        0.13332
C          3.73297       -1.11507        0.44792
N          4.63814       -1.75385        0.73079
C          1.17907       -0.74532        0.10389
N          1.17891       -1.82518        0.37332
H          0.24870       -2.19379        0.56609
H          1.84402       -2.48773        0.76916
C          0.01193        0.01408       -0.08352
C         -1.23980       -0.72722       -0.32889
N         -1.30335       -1.71909       -0.83278
H         -2.00064       -1.95021       -1.53844
H         -0.39345       -1.76769       -1.28931
H          4.19174        1.05650       -0.25288
H          3.00195        2.93560       -0.88210
H          0.77829        3.31164       -0.78478
H         -1.52424        3.22840       -0.41465
H         -3.38011        1.15231        1.66684
