28
Coordinates from ORCA-job ./opt_b97-3c_parallel
N          5.40938        0.79561       -0.52100
C          4.28055        0.72939       -0.36854
C          2.87010        0.58803       -0.17204
C          2.32546       -0.69295        0.15472
N          0.99838       -1.04598        0.29350
C         -0.17637       -0.30033        0.19992
C         -0.24503        1.16269        0.08056
N         -1.41098        1.91635        0.27137
C         -2.67709        1.41082        0.08495
C         -3.06653        0.31905       -0.62173
C         -2.63984       -0.80511        0.01686
C         -1.27736       -1.15018        0.36628
C         -1.33143       -2.54618        0.72374
N         -0.89694       -3.45987        0.19216
N         -3.68177       -1.19707       -0.02463
H         -3.46116       -2.12357       -0.39494
H         -4.67379       -1.23763        0.21655
H         -3.09122        0.37054       -1.71512
N         -3.36260        2.23258        0.36578
H         -4.28830        1.85299        0.57418
H         -3.46136        3.24456        0.46697
C          0.80977        2.04625       -0.08497
C          2.20986        1.79091       -0.26878
H          2.80007        2.68472       -0.46700
H          0.57345        3.10795       -0.14333
N          2.64640       -1.73912        0.32669
H          3.64825       -1.68270        0.12871
H          2.50429       -2.68603        0.68423
