30
Coordinates from ORCA-job ./opt_b97-3c_parallel
N         -5.46908       -0.86302       -0.21549
C         -4.33885       -0.69249       -0.19254
C         -2.91751       -0.47671       -0.12121
C         -2.27832       -1.62744       -0.49802
C         -0.88415       -1.91811       -0.41090
C          0.21846       -1.10987       -0.14972
C          1.38879       -1.96764       -0.07158
C          2.70059       -1.62364        0.15542
N          3.34648       -2.51522        0.28959
H          4.24758       -2.40620        0.75101
H          2.95612       -3.39541        0.62067
C          3.36325       -0.42348        0.15387
C          2.81762        0.83404       -0.05410
N          3.74813        1.45410       -0.10559
H          4.73631        1.28819       -0.28618
H          3.55048        2.39899       -0.43112
C          1.39241        1.16565       -0.08628
C          1.37329        2.60482       -0.27673
N          1.25138        3.59759       -0.83074
C          0.25124        0.34489        0.00363
C         -0.94659        1.13092        0.29897
C         -2.33682        0.74929        0.33942
N         -2.97047        1.59886        0.66682
H         -2.78064        2.51542        1.06760
H         -3.94992        1.39277        0.85698
H         -0.79219        2.16338        0.60150
H          4.45288       -0.53193        0.29101
H          1.18193       -3.03709       -0.13139
H         -0.72235       -2.96770       -0.63669
H         -2.87870       -2.48365       -0.80149
