22
Coordinates from ORCA-job ./opt_b97-3c_parallel
N          5.06881       -0.33512       -0.16209
C          3.93229       -0.21376       -0.16245
C          2.51438       -0.02916       -0.14037
C          1.88576       -0.91913        0.72196
C          0.46054       -1.09560        0.78359
C         -0.25951       -0.66258       -0.37884
C         -0.36752        0.75624       -0.24292
N         -1.56227        1.37646        0.05814
C         -2.59773        0.47482        0.14491
N         -3.20298       -0.75949        0.04707
C         -2.45415       -1.83105       -0.43803
C         -1.04726       -1.79924       -0.78228
H         -0.61478       -2.68355       -1.23862
H         -3.48949       -2.18539       -0.32760
N         -3.35879        1.19919        0.46694
H         -3.19029        2.16311        0.74762
H         -4.30351        0.96180        0.75893
N          0.64476        1.61762       -0.59659
C          1.92584        1.12101       -0.79866
H          2.62619        1.82385       -1.27448
H          0.03717       -1.77909        1.51395
H          2.47882       -1.54931        1.38000
