30
Coordinates from ORCA-job ./opt_b97-3c_parallel
N          3.68947        2.66829        0.68378
C          3.01162        1.78775        0.41398
C          2.14015        0.68799        0.10760
C          2.60153       -0.67491        0.12754
C          1.85908       -1.83886       -0.27974
C          0.41484       -1.91694       -0.38374
N          0.24038       -3.00169       -0.55412
H         -0.29452       -3.03328       -1.42100
H          0.96859       -3.70802       -0.65492
C         -0.54953       -0.92753       -0.22906
C         -1.89673       -1.45390       -0.14659
N         -2.85093       -0.91938        0.63236
C         -3.17448        0.42040        0.55665
C         -2.76944        1.27636       -0.44312
C         -1.39690        1.34394       -0.90230
N         -1.38744        2.31054       -1.44587
H         -1.87942        2.86840       -2.14386
H         -0.45475        2.15344       -1.82741
C         -0.34127        0.49526       -0.37547
C          0.92195        1.19414       -0.29555
H          0.85814        2.27490       -0.41627
H         -3.47605        2.06771       -0.70822
N         -4.04317        0.25013        1.21839
H         -4.48188       -0.22981        2.00080
H         -4.31325        1.23057        1.30400
H         -2.13772       -2.51595        0.01496
H          2.44262       -2.76458       -0.37517
N          3.64838       -0.96264        0.35155
H          4.18355       -1.82123        0.46880
H          4.25296       -0.20334        0.66186
