29
Coordinates from ORCA-job ./opt_b97-3c_parallel
N          3.35517        2.78778       -0.31328
C          2.68924        1.87227       -0.16016
C          1.84576        0.70403       -0.00641
C          2.65953       -0.39827       -0.28755
C          2.36510       -1.79322       -0.02802
C          1.15348       -2.26379        0.39322
N         -0.08085       -1.67104        0.31834
C         -0.48804       -0.35171        0.12965
C          0.39960        0.79637        0.24689
C          0.00316        2.08069        0.60737
C         -1.29393        2.66200        0.71482
C         -2.48430        2.17934        0.25608
C         -2.77309        0.85158       -0.21638
C         -1.93831       -0.32739       -0.10562
C         -2.62720       -1.57610       -0.36134
N         -3.12401       -2.58634       -0.55847
N         -3.84706        0.88704       -0.49790
H         -4.51220        1.65886       -0.46593
H         -4.30974        0.13672       -1.00998
H         -3.30095        2.90648        0.27468
H         -1.30114        3.69095        1.06407
H          0.74567        2.81479        0.89703
N          0.69690       -3.23725        0.64735
H          1.41962       -3.87926        0.97187
H         -0.18386       -3.74713        0.72538
H          3.12940       -2.57656       -0.12651
N          3.72021       -0.55167       -0.60262
H          4.49469       -1.17598       -0.82759
H          4.02683        0.37452       -0.90241
