20
Coordinates from ORCA-job ./opt_b97-3c_parallel
N         -0.66865       -3.35231        0.31903
C         -1.23510       -2.45474       -0.10598
C         -1.08254       -1.35776       -0.06612
C         -0.03953       -0.51672       -0.05426
N          1.24164       -0.84577       -0.10971
C          2.54261       -0.37404       -0.09912
N          2.94116        0.94714        0.03208
C          1.88095        1.83665        0.12210
N          0.50571        2.02707        0.13018
C         -0.22222        0.84577        0.02891
N         -1.15182        1.87329        0.07012
C         -2.45685        1.41213        0.02813
N         -3.18138        0.23908       -0.01917
C         -2.36492       -0.87414       -0.04488
H         -3.43477       -1.14388       -0.06213
H         -3.33924        2.07382        0.03477
H          2.46244        2.76851        0.22093
N          3.29299       -1.17642       -0.20950
H          4.29113       -1.03468       -0.03991
H          3.22673       -2.11796       -0.60209
