29
Coordinates from ORCA-job ./opt_b97-3c_parallel
N          5.52214        1.54384       -0.22729
C          4.43819        1.19258       -0.14809
C          3.06224        0.75124       -0.09007
C          2.62911       -0.62408        0.04532
N          3.49974       -1.31301        0.13314
H          4.44533       -1.05900       -0.15689
H          3.59900       -2.18798        0.64882
C          1.26927       -1.15213        0.00200
C          1.15654       -2.59970        0.06007
N          1.00209       -3.73051        0.10964
C          0.02159       -0.36915       -0.06974
N         -1.07084       -1.24782       -0.19358
C         -2.38211       -0.98665       -0.21673
N         -2.41172       -2.09004       -0.36921
H         -2.03608       -2.98585       -0.04049
H         -3.21988       -2.35975       -0.93741
C         -3.14938        0.14168       -0.06063
C         -4.56046       -0.08346       -0.08896
N         -5.68230       -0.28934       -0.13093
C         -2.62238        1.45834        0.12859
N         -1.28801        1.82117        0.09386
C         -0.09979        1.08798       -0.01507
C          0.90287        2.03963       -0.05814
C          2.31711        1.90407       -0.15452
H          2.82281        2.86840       -0.23397
H          0.61421        3.09083       -0.05405
N         -2.95115        2.50826        0.27952
H         -3.89453        2.60186        0.66623
H         -2.65449        3.47341        0.11397
