27
Coordinates from ORCA-job ./opt_b97-3c_parallel
N          4.94608        0.52224        0.05670
C          3.81667        0.34352        0.00965
C          2.38880        0.12580       -0.00672
C          1.85571       -1.18987        0.26111
N          2.51752       -2.03949        0.53485
H          3.51621       -1.84051        0.59128
H          2.41626       -3.03627        0.71793
C          0.56121       -1.60404        0.11926
C         -0.62894       -0.97365       -0.07219
C         -1.75728       -1.80697       -0.46803
C         -3.09286       -1.44926       -0.60304
N         -3.87351       -0.40683       -0.24696
C         -3.22590        0.72356        0.18925
N         -1.98225        1.01982        0.05003
C         -0.82191        0.45246        0.00492
C          0.15423        1.43396       -0.13500
C          1.60321        1.25801       -0.24218
N          1.96341        2.28800       -0.46544
H          2.98360        2.29595       -0.49385
H          1.67374        3.23196       -0.71388
H         -0.22468        2.45908       -0.23391
N         -4.03512        1.36624        0.58051
H         -5.03075        1.17166        0.68608
H         -3.86303        2.22352        1.10479
H         -3.67632       -2.30033       -0.98778
H         -1.50668       -2.84129       -0.70219
H          0.40687       -2.67568        0.28848
