25
Coordinates from ORCA-job ./opt_b97-3c_parallel
N          4.16793       -0.00993       -0.06183
C          3.06543       -0.04244       -0.02142
C          2.47374        1.23882        0.22309
C          1.07892        1.55359        0.25055
C         -0.05384        0.67054        0.13329
C         -1.20517        1.44595        0.03472
N         -2.51452        1.25521       -0.22516
C         -2.97577       -0.03199       -0.09951
C         -2.40626       -1.06701        0.55872
C         -1.22704       -1.55280        0.10318
C         -0.00399       -0.78407        0.01512
C          1.09412       -1.60782       -0.15577
C          2.48356       -1.27319       -0.20621
H          3.13656       -2.12931       -0.37007
H          0.92625       -2.67544       -0.26516
H         -1.15626       -2.62907       -0.02983
H         -2.76506       -1.35720        1.54488
N         -4.02502        0.07081       -0.42591
H         -4.47803       -0.81780       -0.63690
H         -4.60343        0.79247       -0.85491
H         -1.40905        2.52767        0.00488
H          0.87274        2.61502        0.36344
H          3.14060        2.09169        0.34081
H          4.68190       -0.68906       -0.62074
H          4.84194        0.69893        0.22281
