21
Coordinates from ORCA-job ./opt_b97-3c_parallel
N         -0.07158       -3.96524        0.03109
C          0.14285       -2.84411       -0.01247
C          0.46362       -1.44879       -0.06585
C          1.84442       -1.38887        0.04532
N          2.75545       -0.40797        0.20142
C          2.29167        0.86451       -0.03398
C          1.19608        1.43479       -0.59074
C         -0.03385        1.02350       -0.18606
N         -0.74825        2.21757       -0.13810
C         -2.10022        2.19444        0.10654
N         -3.21676        1.44452        0.33269
C         -2.81965        0.13923        0.31653
N         -1.80507       -0.77748        0.19321
C         -0.49387       -0.35392       -0.01949
H         -3.78405       -0.36254        0.49161
H         -2.85211        2.99458        0.19077
H          1.29610        1.95101       -1.54630
N          3.23059        1.38678        0.22393
H          4.24351        1.26735        0.19443
H          3.06857        2.30379        0.64157
H          2.61711       -2.16830        0.14170
