26
Coordinates from ORCA-job ./opt_b97-3c_parallel
N         -0.98914       -3.90022       -0.13778
C         -1.10088       -2.76750       -0.07374
C         -1.17286       -1.34132        0.00238
C         -2.50250       -0.99130       -0.20530
N         -3.22267        0.14980       -0.20287
C         -2.51031        1.31734       -0.05558
N         -1.24651        1.57614        0.00528
C         -0.14797        0.94136        0.25866
C          0.90765        1.79256        0.47569
C          2.16138        1.58439       -0.04234
N          2.97704        0.47869       -0.25904
C          2.40282       -0.73927        0.08873
N          3.22161       -1.46373       -0.09849
H          3.05855       -2.46576       -0.23304
H          4.23596       -1.39347        0.01626
C          1.18465       -1.08800        0.60950
C         -0.01753       -0.50148        0.29410
H          1.17647       -1.82043        1.41824
N          2.88303        2.34606       -0.40224
H          3.77271        2.61699        0.02581
H          2.75637        3.01832       -1.16373
H          0.77383        2.61463        1.18009
N         -3.34299        2.04243       -0.03384
H         -4.26398        1.88066       -0.44592
H         -3.45285        2.88479        0.53249
H         -3.43810       -1.54234       -0.39660
