30
Coordinates from ORCA-job ./opt_b97-3c_parallel
N         -1.13655       -3.83186        0.47491
C         -0.62577       -2.81941        0.33218
C         -0.03318       -1.50467        0.13079
C          1.27894       -1.50646       -0.35973
N          1.74460       -2.45406       -0.73281
H          1.30579       -3.36626       -0.85476
H          2.74669       -2.61196       -0.84475
C          2.24173       -0.41282       -0.22820
C          3.64403       -0.63200       -0.57365
N          4.73387       -0.96882       -0.61257
C          1.96276        0.81340        0.38056
N          2.77710        1.48341        0.75099
H          3.74564        1.16265        0.73790
H          2.81131        2.46782        1.01643
C          0.67583        1.50585        0.32661
C          0.52849        2.86550        0.83024
N          0.38456        3.92975        1.22343
C         -0.54098        0.97290       -0.11816
C         -1.38681        1.86965       -0.77526
C         -2.70753        1.79745       -1.14797
C         -3.68375        0.93341       -0.56793
C         -3.40734       -0.04226        0.35401
N         -2.20809       -0.70037        0.52628
C         -0.91130       -0.33716        0.14768
N         -4.06483       -0.73788        0.90420
H         -4.02649       -1.50039        1.58052
H         -5.01223       -0.36486        0.96018
H         -4.71955        1.13486       -0.82931
H         -3.09453        2.58094       -1.79321
H         -0.92584        2.77618       -1.16085
