26
Coordinates from ORCA-job ./opt_b97-3c_parallel
N         -5.07307       -0.35176        0.47958
C         -3.96220       -0.20485        0.25727
C         -2.58312        0.00896       -0.05271
C         -1.93768        1.28244        0.06033
C         -0.77296        1.52451       -0.59536
C          0.33583        0.80719       -0.27489
N          1.28133        1.80364       -0.08370
C          2.57744        1.56510        0.14795
C          3.38604        0.46146        0.26733
C          2.96448       -0.89847        0.12706
C          1.67525       -1.32429       -0.15264
C          1.80497       -2.75968       -0.18987
N          1.74105       -3.64827        0.52595
C          0.48667       -0.62866       -0.33429
N         -0.60483       -1.45756       -0.62750
C         -1.90294       -1.10196       -0.50689
H         -2.16729       -2.14693       -0.73176
H          3.78727       -1.60323        0.25682
H          4.44593        0.58984        0.47277
N          2.85698        2.63194        0.21521
H          3.75318        2.86848        0.64049
H          2.56466        3.46536       -0.29583
H         -0.81925        1.98702       -1.58297
N         -2.23213        2.28719        0.41818
H         -3.20771        1.99119        0.46319
H         -2.18081        3.15084        0.95713
