27
Coordinates from ORCA-job ./opt_b97-3c_parallel
N         -5.41566       -1.24866        0.45032
C         -4.42509       -0.72765        0.21845
C         -3.17209       -0.07971       -0.03057
C         -1.95440       -0.81602        0.10133
C         -0.57869       -0.37270       -0.03658
C          0.25158       -1.55047        0.11960
C          1.67486       -1.70987        0.07332
C          2.16362       -3.05534        0.12541
N          2.55051       -4.13080        0.13308
C          2.65654       -0.67126        0.08509
C          2.45651        0.69893        0.05895
C          3.83849        1.12570        0.21651
N          4.70378        1.64509        0.75322
C          1.20798        1.42272       -0.15959
N          1.58805        2.46720       -0.19225
H          2.43574        2.96708        0.07338
H          0.87035        2.73368        0.47945
C         -0.11803        0.98567       -0.27903
C         -1.01659        2.07364       -0.67070
C         -2.38017        2.15132       -0.80526
C         -3.38082        1.20025       -0.46819
H         -4.40091        1.56006       -0.58894
H         -2.77005        3.10380       -1.15172
H         -0.54941        3.01436       -0.94088
H          3.65961       -1.10672        0.14760
H         -0.25733       -2.50528        0.22228
H         -2.13316       -1.85223        0.37433
