20
Coordinates from ORCA-job ./opt_b97-3c_parallel
N         -1.75837       -3.19084       -0.16025
C         -1.51711       -2.07410       -0.10284
C         -1.21225       -0.67563       -0.07431
C         -2.39032        0.02244       -0.26143
N         -2.72527        1.30155       -0.04626
C         -1.62593        2.07518        0.20957
C         -0.27927        2.22920        0.19286
C          0.55464        1.18265        0.16491
C          1.85939        1.57274       -0.08369
C          3.02579        0.75472       -0.34483
N          3.06422       -0.58453       -0.21756
C          2.05955       -1.29387        0.29927
N          0.95747       -0.89156        0.82892
C          0.07208       -0.10938        0.30064
H          2.13507       -2.38659        0.40550
H          4.05179        1.01079       -0.64793
H          2.08386        2.62723       -0.21689
H          0.09205        3.24634        0.08005
H         -2.24746        2.97224        0.35104
H         -3.44884       -0.19927       -0.46444
