30
Coordinates from ORCA-job ./opt_b97-3c_parallel
N         -3.84689       -2.44700       -1.31620
C         -3.26623       -2.05673       -0.41019
C         -2.47994       -0.91691       -0.01221
C         -1.13310       -1.20413       -0.06655
C          0.03457       -0.33325        0.06770
C          1.24948       -1.03089        0.05752
N          1.33576       -2.12127        0.27081
H          0.71985       -2.05709        1.07955
H          2.13118       -2.68898        0.55922
C          2.56560       -0.63216       -0.16720
C          3.82724       -1.35814       -0.16978
N          4.80247       -1.95543       -0.15020
C          3.05696        0.59213       -0.58334
C          2.31596        1.80794       -0.63938
C          1.01491        2.02841       -0.19357
N          0.99983        3.13774       -0.26412
H          0.05435        3.22616       -0.63190
H          1.48849        3.99910       -0.50112
C         -0.07234        1.11561        0.16849
C         -1.16629        1.82356        0.66631
C         -2.50344        1.42886        0.98274
C         -3.14326        0.22498        0.54383
N         -4.22806        0.35941        0.72370
H         -4.59402       -0.19835       -0.04653
H         -4.75938        1.22760        0.73353
H         -3.10730        2.21938        1.43092
H         -1.03643        2.87139        0.91574
H          2.96608        2.62288       -0.98594
H          4.09795        0.75176       -0.87915
H         -0.90678       -2.22981       -0.34914
