27
Coordinates from ORCA-job ./opt_b97-3c_parallel
N         -4.81625       -0.39700        1.31756
C         -3.75658       -0.52273        0.91090
C         -2.42207       -0.71013        0.43827
C         -1.67911       -1.89853        0.74089
N         -0.43128       -2.08301        0.25758
C          0.55122       -1.19481       -0.03841
N          1.69421       -1.78332       -0.58932
C          2.90916       -1.12498       -0.64711
C          3.48715       -0.33108        0.29739
C          2.83524        0.70585        0.80232
C          1.60244        1.09063        0.34262
C          1.69944        2.52016        0.29948
N          1.81920        3.65485        0.25620
C          0.42527        0.25437        0.15411
C         -0.88717        0.86174        0.02506
C         -1.28324        2.22770        0.19930
N         -1.63224        3.30738        0.32624
C         -1.98355        0.21679       -0.45241
N         -2.24083        0.04005       -1.76132
H         -3.11286       -0.41346       -2.03726
H         -2.12628        0.82730       -2.40094
H          3.31526        1.26124        1.61153
H          4.46364       -0.58738        0.71150
N          3.53683       -1.80499       -1.25438
H          3.66038       -2.76934       -1.56928
H          4.33007       -1.29422       -1.64800
H         -2.34918       -2.62829        1.22197
