23
Coordinates from ORCA-job ./opt_b97-3c_parallel
N          3.17862        2.53802       -1.15628
C          2.21296        2.03101       -0.81321
C          0.99086        1.42087       -0.34748
C         -0.05131        2.37781       -0.11891
C         -1.15542        2.10904        0.61091
C         -2.00138        1.25361       -0.00489
N         -2.87590        1.92598       -0.10689
H         -3.46722        1.25888       -0.60017
H         -3.34574        2.82769       -0.16247
C         -1.73316       -0.15169       -0.11224
C         -2.86566       -1.00468       -0.36104
N         -3.78706       -1.65317       -0.55122
C         -0.46291       -0.70366        0.09770
N         -0.42058       -2.05665        0.29477
C          0.77606       -2.74094        0.37336
N          2.15119       -2.81267        0.33760
C          2.69957       -1.56876        0.11487
N          1.98236       -0.49933       -0.00307
C          0.80952        0.05999       -0.02968
H          3.79603       -1.51622        0.03879
H          0.42763       -3.77068        0.54323
H         -1.13453        2.19926        1.69685
H          0.15624        3.41105       -0.38434
