29
Coordinates from ORCA-job ./opt_b97-3c_parallel
N         -5.02302        0.23578       -0.13562
C         -3.88788        0.11849       -0.08501
C         -2.44291        0.03670       -0.00725
C         -1.65207       -1.10908       -0.16016
N         -2.33919       -1.96139       -0.40185
H         -3.32965       -2.13330       -0.57572
H         -1.85831       -2.80510       -0.71673
C         -0.20659       -1.25151        0.09816
C          0.12032       -2.66707        0.12704
N          0.41752       -3.67619       -0.32127
C          0.79756       -0.26404        0.14307
C          2.14162       -0.77690        0.41651
C          3.35622       -0.14803        0.24927
N          4.23780       -0.76758        0.50001
H          4.28219       -1.69692        0.91601
H          5.20358       -0.47611        0.35552
C          3.70892        1.07498       -0.25725
C          2.89100        2.11478       -0.58129
C          1.47753        2.16593       -0.38366
C          0.57135        1.15854       -0.07755
N         -0.63653        1.80315        0.12866
C         -1.90807        1.32290        0.31578
N         -2.12124        2.39025        0.52407
H         -1.92874        3.28817        0.96823
H         -3.13619        2.28230        0.55052
H          1.08784        3.16682       -0.56344
H          3.36207        3.03384       -0.91800
H          4.76988        1.29278       -0.38965
H          2.21515       -1.79435        0.79005
