26
Coordinates from ORCA-job ./opt_b97-3c_parallel
N         -4.97468       -1.14040       -0.60681
C         -4.18681       -0.65389        0.06240
C         -2.86763       -0.09560        0.12915
C         -1.80212       -1.03559        0.30718
C         -0.42690       -0.82555        0.32460
C          0.20951       -2.10261        0.58442
C          1.58666       -2.47263        0.63522
C          2.72550       -1.71654        0.24907
C          2.77934       -0.34190       -0.12387
C          4.06794        0.15964       -0.49616
N          5.08903        0.55012       -0.82724
C          1.70782        0.61006       -0.05448
C          0.27469        0.44305        0.16159
C         -0.37300        1.75791        0.16851
N          0.07359        2.77579        0.17268
H          0.62690        2.38541        0.93340
H         -0.12989        3.74064        0.42697
C         -1.72311        2.09457        0.15574
C         -2.80777        1.26909        0.08901
H         -3.75990        1.78903        0.01208
H         -2.04849        3.14391        0.14702
H          2.06582        1.61068       -0.27559
H          3.66615       -2.26049        0.24383
H          1.78255       -3.50932        0.89147
H         -0.42874       -2.95225        0.80872
H         -2.17082       -2.05500        0.39077
