28
Coordinates from ORCA-job ./opt_b97-3c_parallel
N          3.91829        0.16263       -1.29561
C          2.84208        0.19336       -0.49484
C          2.40045        1.37227        0.02728
C          1.02087        1.66695        0.32674
C         -0.01436        0.75620        0.13400
C         -1.32288        1.36282        0.35894
N         -2.54997        0.80910        0.24052
C         -2.64661       -0.37710       -0.44780
N         -1.87429       -1.09808       -1.17745
C         -0.79448       -1.50085       -0.60631
C          0.24016       -0.67555       -0.03742
C          1.43067       -1.25942        0.29761
C          2.76405       -1.00405        0.14598
H          3.52483       -1.32508        0.85523
N          1.28303       -2.18078        1.26675
H          0.61860       -2.03233        2.02388
H          2.10809       -2.62018        1.67378
H         -0.67036       -2.58208       -0.77503
N         -3.73247       -0.57243       -0.46518
H         -4.43665        0.11687       -0.20308
H         -4.15430       -1.14926       -1.19152
N         -1.95114        2.22948        0.63177
H         -2.61322        2.71907        1.23284
H         -1.03259        2.61102        0.85186
H          0.82112        2.69326        0.62253
H          3.10253        2.18647        0.18423
H          4.27824       -0.71793       -1.66119
H          4.08644        0.89500       -1.98342
