22
Coordinates from ORCA-job ./opt_b97-3c_parallel
N         -4.01959       -1.61471        0.12520
C         -3.12199       -0.90838        0.08923
C         -1.96420       -0.06452        0.04164
C         -2.45537        1.20936        0.00391
N         -1.95346        2.43872       -0.03823
C         -0.60100        2.68849       -0.06147
C          0.55121        1.82942       -0.06746
C          1.78549        2.56114       -0.11142
N          2.79052        3.10353       -0.14463
C          0.55832        0.36791       -0.03323
N          1.87137       -0.14935       -0.07005
C          2.13144       -1.50742       -0.04581
N          1.68015       -2.81072        0.01083
C          0.30199       -2.87064        0.07825
N         -0.44994       -1.81778        0.07586
C         -0.59999       -0.52818        0.03066
H         -0.34554       -3.75982        0.13754
N          3.23004       -1.43197       -0.10497
H          3.77068       -2.28494        0.03285
H          3.89737       -0.71695       -0.39378
H         -0.75413        3.77870       -0.08498
H         -3.40285        1.77121       -0.00111
