32
Coordinates from ORCA-job ./opt_b97-3c_parallel
N         -4.24560       -2.12066       -1.37752
C         -3.71152       -1.54119       -0.54795
C         -2.74315       -0.57355       -0.09974
C         -2.99649        0.77204        0.05305
N         -3.98477        1.22163       -0.17720
H         -4.40271        0.66807       -0.92381
H         -4.09815        2.19831       -0.44255
C         -2.13808        1.71552        0.71254
C         -0.75680        1.56938        0.80983
N         -0.51161        2.58030        1.20721
H          0.46489        2.37572        1.41547
H         -0.89726        3.01833        2.04210
C          0.13087        0.55804        0.40688
C          1.42020        0.92125       -0.02765
N          1.67539        1.95542       -0.35409
H          2.38702        2.41308       -0.92103
H          0.80950        2.47409       -0.49503
C          2.58954        0.10316       -0.34868
C          3.78318        0.52293       -1.07191
N          4.34462        0.70299       -2.05334
C          2.86720       -1.13923        0.21221
C          1.93937       -1.96224        0.95493
C          0.57557       -1.84298        0.91445
C         -0.28566       -0.83159        0.52337
C         -1.58398       -1.29656        0.35506
H         -1.71337       -2.37793        0.39186
H          0.10271       -2.75397        1.27154
H          2.28302       -2.89945        1.40927
N          3.75744       -1.81239        0.24243
H          3.92215       -2.81066        0.35509
H          4.35565       -1.50743       -0.52374
H         -2.65160        2.65563        0.97935
