29
Coordinates from ORCA-job ./opt_b97-3c_parallel
N         -4.60437       -2.31741        0.01971
C         -3.78577       -1.52212       -0.03935
C         -2.72220       -0.55301       -0.10438
C         -2.98836        0.85688       -0.08655
C         -2.02743        1.91640       -0.21605
C         -0.57895        1.76496       -0.25754
N         -0.32950        2.84354       -0.34113
H         -0.28327        3.06250       -1.33565
H         -0.62123        3.69961        0.12984
C          0.25843        0.64580       -0.18123
C          1.66961        1.03899       -0.11251
C          2.81389        0.26908       -0.03231
C          3.99592        1.07120        0.07924
N          4.96174        1.67178        0.18302
C          2.97076       -1.14924       -0.05537
N          1.98893       -2.09982       -0.14939
C          0.63227       -1.87239       -0.20055
C         -0.16615       -0.74634       -0.18321
C         -1.52675       -1.23699       -0.18478
H         -1.60707       -2.32652       -0.20824
H          0.61816       -2.97336       -0.22209
N          3.70790       -1.97228       -0.02129
H          4.34571       -1.70548        0.72914
H          4.27255       -2.47639       -0.70507
H          1.87084        2.10762       -0.09414
H         -2.47832        2.92303       -0.25344
N         -4.01367        1.27257       -0.01684
H         -4.35497        2.19288        0.25631
H         -4.77902        0.62099        0.15337
