28
Coordinates from ORCA-job ./opt_b97-3c_parallel
N         -4.27224       -1.39640       -0.47697
C         -3.20511       -0.99434       -0.40653
C         -1.87467       -0.41619       -0.30023
C         -2.00741        1.00971       -0.15224
N         -1.02762        1.98032       -0.05000
C          0.28401        1.71918        0.03854
N          0.20661        2.82612        0.10744
H          1.06556        2.75868       -0.44221
H          0.18736        3.78616        0.45686
C          1.13042        0.62519        0.06516
C          2.47110        1.10885        0.36224
C          3.65210        0.43106        0.47807
C          3.91787       -0.88287        0.25905
C          3.07100       -1.87973       -0.11662
C          1.65261       -1.81393       -0.29793
C          0.72564       -0.75885       -0.18560
C         -0.64006       -1.10330       -0.34720
N         -0.91010       -2.16929       -0.52568
H         -1.35951       -2.71176       -1.26488
H         -0.49465       -2.85335        0.10753
H          1.30947       -2.81061       -0.55912
H          3.51304       -2.86133       -0.26518
H          4.95638       -1.17734        0.38479
H          4.51231        1.03346        0.75720
H          2.57142        2.17184        0.56138
N         -2.77696        1.81051       -0.09526
H         -3.44301        1.22966        0.41975
H         -3.35429        2.48026       -0.60650
