32
Coordinates from ORCA-job ./opt_b97-3c_parallel
N         -3.50883       -2.99780       -1.13346
C         -3.00469       -2.36543       -0.32339
C         -2.32434       -1.14339        0.01944
C         -3.02592        0.07120        0.32893
N         -4.13465        0.12017        0.31063
H         -4.74842        0.93208        0.28463
H         -4.45151       -0.50982       -0.42493
C         -2.49664        1.21776        0.88052
C         -1.11265        1.64437        0.76822
N         -1.17700        2.68160        1.16120
H         -0.17024        2.83875        1.13508
H         -1.46510        2.82308        2.12783
C         -0.04934        0.95535        0.04049
C          0.91450        1.88087       -0.54357
N          0.85852        2.96521       -0.77370
H         -0.15530        3.02594       -0.68761
H          1.14329        3.72991       -1.38259
C          2.14904        1.56384       -1.22923
C          2.97673        0.43216       -0.96575
C          2.69697       -0.65221       -0.15303
C          4.01478       -1.25232       -0.07854
N          4.92963       -1.58971        0.51901
C          1.37881       -1.10322        0.26257
N          1.57960       -2.11903        0.66792
H          0.95684       -1.98666        1.46271
H          2.45235       -2.48872        1.04266
C          0.13484       -0.47934        0.14197
C         -0.98204       -1.41275        0.19214
H         -0.69864       -2.46249        0.14757
H          3.95343        0.57200       -1.43447
H          2.67031        2.31700       -1.83012
H         -3.21289        1.93615        1.30942
