26
Coordinates from ORCA-job ./opt_b97-3c_parallel
N         -4.10022       -0.51269        0.17865
C         -2.99338       -0.24632        0.08548
C         -1.61556        0.16166       -0.01536
C         -1.50070        1.60014        0.11982
N         -0.41883        2.44146       -0.10852
C          0.83549        1.98461       -0.18473
N          0.93513        3.08683       -0.34845
H          1.95069        2.98340       -0.27130
H          0.81451        4.01882       -0.74954
C          1.36821        0.73513        0.04823
C          2.76837        1.06797        0.14748
N          3.86111        1.39015        0.21530
C          0.81477       -0.53221        0.13663
N          1.72139       -1.45833        0.51002
C          1.63029       -2.82728        0.62572
C          0.77306       -3.69326        0.01451
C         -0.42961       -3.30964       -0.63389
C         -1.02162       -2.07432       -0.56412
C         -0.60017       -0.81330       -0.12866
H         -2.01226       -2.15142       -0.99779
H         -0.99724       -4.11783       -1.08694
H          1.00959       -4.75354        0.02460
H          2.47537       -3.41808        1.01268
N         -2.16302        2.48655        0.23744
H         -2.97491        1.95134        0.55570
H         -2.49340        3.45306        0.21209
