23
Coordinates from ORCA-job ./opt_b97-3c_parallel
N          4.98420        0.15905       -0.02551
C          3.84381        0.08055       -0.07112
C          2.41692       -0.02753       -0.08717
C          1.81005       -1.31454       -0.02900
C          0.41598       -1.62492       -0.06901
C         -0.73101       -0.73923       -0.06682
C         -1.91175       -1.58062       -0.08809
C         -3.29346       -1.22341       -0.02480
C         -3.86365        0.00894        0.11408
C         -3.20782        1.27074        0.15231
C         -1.87259        1.56459        0.04181
C         -0.69717        0.71498       -0.05730
C          0.42855        1.52632       -0.14363
C          1.82205        1.20472       -0.17580
H          2.46676        2.07942       -0.24198
H          0.29436        2.60289       -0.18895
H         -1.68427        2.63304        0.06557
H         -3.87666        2.12001        0.25663
H         -4.94617        0.04377        0.19079
H         -3.96269       -2.07709       -0.05748
H         -1.77523       -2.65538       -0.15287
H          0.24004       -2.69584       -0.05530
H          2.48264       -2.16568        0.01709
