27
Coordinates from ORCA-job ./opt_b97-3c_parallel
N          4.86257        1.45181        1.25796
C          3.83198        1.14607        0.87431
C          2.52656        0.79478        0.37229
C          1.62616        1.90300        0.25761
C          0.53774        1.86674       -0.54003
C         -0.49588        1.08663       -0.15968
N         -1.67083        1.85191       -0.16975
C         -2.90128        1.23982        0.01216
N         -3.62418        0.07658        0.22812
C         -2.82757       -1.05356        0.32763
N         -1.53830       -1.01454        0.21515
C         -0.43584       -0.35118        0.00353
C          0.77947       -1.03902       -0.17104
C          0.65178       -2.47182       -0.37455
N          0.06931       -3.39238       -0.72226
C          2.14923       -0.49017       -0.05634
N          2.99931       -1.20320       -0.15587
H          3.95776       -0.96373        0.10105
H          3.07308       -2.02933       -0.74973
N         -3.11839       -2.10586        0.49644
H         -2.58775       -2.96690        0.34763
H         -4.03636       -2.40979        0.82526
N         -3.55842        2.12128       -0.09818
H         -3.32413        3.11441       -0.05255
H         -4.52725        2.09141       -0.41997
H          0.53817        2.38549       -1.49687
H          1.97653        2.86372        0.62721
