31
Coordinates from ORCA-job ./opt_b97-3c_parallel
N         -5.13239       -0.53186        0.79442
C         -4.01705       -0.43661        0.56805
C         -2.59691       -0.35187        0.26548
C         -1.86767       -1.59243        0.39979
C         -0.52015       -1.87817       -0.03266
C          0.57254       -0.96045       -0.23272
C          0.48886        0.47275       -0.01454
C          1.70720        1.22032        0.35947
C          3.01488        0.78051        0.52488
N          3.71182       -0.35049        0.30219
C          2.99126       -1.38727       -0.23323
C          1.71549       -1.58323       -0.64101
H          1.57499       -2.36913       -1.38476
N          3.87751       -2.03731       -0.37871
H          3.57253       -2.89150       -0.84740
H          4.89759       -2.06965       -0.41964
N          3.86195        1.40336        0.87384
H          4.85334        1.46917        1.11310
H          3.50403        2.35222        1.00087
H          1.56063        2.25631        0.65119
C         -0.65580        1.25046       -0.25514
C         -0.40164        2.62025       -0.68557
N          0.15766        3.38184       -1.32811
C         -2.06571        0.84746       -0.22233
N         -2.81163        1.64581       -0.47490
H         -3.81549        1.46632       -0.50161
H         -2.69177        2.60238       -0.80036
H         -0.22605       -2.92948       -0.10240
N         -2.28417       -2.58674        0.67084
H         -3.29198       -2.43982        0.73741
H         -2.15306       -3.59474        0.73987
