25
Coordinates from ORCA-job ./opt_b97-3c_parallel
N         -4.57114       -1.71387        0.46502
C         -3.48508       -1.35939        0.47124
C         -2.11100       -0.94922        0.40163
C         -1.12017       -1.90344        0.85270
N          0.18951       -1.79454        0.54001
C          0.79083       -0.64778        0.18620
N          1.90760       -1.23802       -0.15149
C          3.12783       -0.77770       -0.19420
C          3.57869        0.32720        0.48389
C          2.75665        1.13085        1.22863
N          1.52344        1.27810        0.84944
C          0.49545        0.68782        0.30789
C         -0.77060        1.06008       -0.06769
C         -0.66351        2.45776       -0.40843
N         -0.57198        3.55220       -0.71490
C         -1.84869        0.23327       -0.25627
N         -2.71687        0.75272       -1.15419
H         -3.69922        0.47765       -1.12231
H         -2.71395        1.75998       -1.33064
H          3.20971        1.99515        1.73906
H          4.63673        0.58595        0.43329
N          3.66007       -1.18171       -1.07410
H          3.58751       -2.04383       -1.61370
H          4.56463       -0.77811       -1.32024
H         -1.56980       -2.81811        1.27210
