27
Coordinates from ORCA-job ./opt_b97-3c_parallel
N          2.23252        3.84795       -0.06881
C          2.06342        2.71989       -0.01729
C          1.82108        1.30721        0.01046
C          3.13420        0.86989        0.05247
N          3.72279       -0.33239        0.09907
C          2.80610       -1.34197        0.05541
N          1.51451       -1.79465       -0.02059
C          0.48035       -0.86708       -0.05221
N         -0.58588       -1.74500       -0.16819
C         -1.93832       -1.46196       -0.22802
N         -2.23245       -2.52582       -0.34761
H         -2.40311       -3.15604       -1.13522
H         -3.09743       -2.56536        0.19918
C         -2.59596       -0.19172       -0.09605
C         -4.03471       -0.23681       -0.10720
N         -5.17259       -0.32635       -0.11393
C         -1.98351        1.05090        0.03301
N         -2.51885        2.01841        0.14260
H         -2.23936        2.99216        0.27264
H         -3.53640        2.02282        0.23617
C         -0.57511        1.42047        0.02930
C          0.53785        0.58676       -0.01109
H         -0.37319        2.49160        0.09711
N          3.57820       -2.13219        0.11384
H          3.73372       -2.78358        0.88578
H          4.42194       -2.19921       -0.45997
H          4.16815        1.25744        0.07526
