23
Coordinates from ORCA-job ./opt_b97-3c_parallel
N          3.60503        2.02586       -1.03589
C          2.70765        1.57942       -0.48533
C          1.80771        0.50217       -0.17630
C          2.08168       -0.80012        0.24448
C          1.21531       -1.96221        0.42359
C         -0.14725       -2.05379        0.20441
C         -1.02085       -1.02257       -0.02230
C         -2.37872       -1.32475       -0.39063
N         -3.30674       -0.38322       -0.65681
C         -3.34379        0.91832       -0.29937
N         -2.60901        1.58020        0.67567
C         -1.34416        1.12917        0.98186
C         -0.58830        0.31866        0.07869
C          0.51070        1.10359       -0.35941
H          0.37856        2.12660       -0.70985
H         -1.44387        1.97941        1.67251
H         -4.30085        0.91981       -0.84274
H         -2.75231       -2.33723       -0.60405
H         -0.56673       -3.05514        0.23073
H          1.71073       -2.89948        0.67709
N          3.13245       -1.11450        0.39813
H          3.75680       -0.45217       -0.06109
H          3.39964       -2.03985        0.06734
