23
Coordinates from ORCA-job ./opt_b97-3c_parallel
N          3.30233        1.19468       -0.16117
C          2.41321        0.54028       -0.15514
C          2.65104       -0.75232        0.28867
C          1.67082       -1.78499        0.19711
C          0.49970       -1.67767       -0.46607
C         -0.39200       -0.71930       -0.12877
N         -1.55594       -1.42154        0.12903
C         -2.80725       -0.89264        0.37058
C         -3.23422        0.40869        0.29282
C         -2.50383        1.53410        0.00708
C         -1.15740        1.67043       -0.21966
C         -0.17884        0.69686       -0.24708
C          1.16120        1.22416       -0.45375
H          1.23966        2.28732       -0.67194
H         -0.83885        2.69673       -0.37919
H         -3.07231        2.45894       -0.01621
H         -4.29264        0.56613        0.47450
H         -3.52879       -1.69323        0.59301
H          0.35191       -2.25488       -1.37598
H          1.95926       -2.76544        0.56165
H          3.63056       -1.04269        0.66169
H          4.19525        0.87823        0.21184
H          2.98744        1.95391        0.43987
