23
Coordinates from ORCA-job ./opt_b97-3c_parallel
N         -4.94466       -0.10670       -1.12748
C         -3.86342       -0.01600       -0.76989
C         -2.52290        0.10811       -0.28547
C         -1.89655       -1.08359        0.04656
C         -0.47874       -1.32146        0.27086
C          0.58876       -0.42482        0.15145
C          0.31151        0.98809        0.22517
N          1.12203        2.10071        0.10223
C          2.42367        2.03086       -0.17640
C          3.36309        1.04662       -0.31152
C          3.11538       -0.35437       -0.17793
C          1.87401       -0.94513        0.02245
C          2.23200       -2.33996        0.02897
N          2.43660       -3.31384        0.59318
H          4.03270       -0.93639       -0.28197
H          4.39419        1.32483       -0.50542
H          2.73981        3.08153       -0.26008
C         -0.83256        1.55489        0.67009
C         -1.94316        1.39587       -0.07893
H         -2.53515        2.26134       -0.36141
H         -0.92056        1.86602        1.70932
H         -0.26385       -2.37799        0.38363
H         -2.49558       -1.99004        0.01450
