26
Coordinates from ORCA-job ./opt_b97-3c_parallel
N          0.28671       -2.90907       -1.72298
C          0.61229       -1.87609       -1.35849
C          0.58311       -1.28248       -0.41163
C         -0.41660       -0.33339       -0.29309
N         -1.73006       -0.85739       -0.27937
C         -2.86579       -0.16668        0.00057
C         -3.15988        1.12224        0.41259
C         -2.20472        2.18079        0.30098
C         -1.09171        2.07230       -0.46435
C         -0.16203        1.09876       -0.29524
N          1.10586        1.68685       -0.22813
C          2.21619        0.91066        0.05517
N          2.74484       -0.34319        0.32988
C          1.84013       -1.38319        0.15631
N          2.64869       -2.02694        0.58806
H          2.33937       -2.98826        0.41203
H          3.59489       -2.14952        0.96518
N          2.94878        1.74008        0.08929
H          2.81985        2.74571       -0.05009
H          3.95843        1.63798        0.21815
H         -0.97179        2.77883       -1.28545
H         -2.51923        3.15574        0.66553
H         -4.14048        1.39091        0.80132
N         -3.59103       -1.00155       -0.04373
H         -4.48217       -0.74113        0.38578
H         -3.83369       -1.76943       -0.67452
