26
Coordinates from ORCA-job ./opt_b97-3c_parallel
N         -2.57453       -3.03842        0.56795
C         -2.20412       -1.97911        0.34773
C         -1.75537       -0.63326        0.10964
C         -2.94382        0.17171        0.09480
N         -3.16271        1.50626       -0.11725
C         -2.14700        2.34382       -0.23958
C         -0.78601        2.29020       -0.17969
C          0.07009        1.11854       -0.06851
C          1.38221        1.59483       -0.02103
C          2.57403        0.91158        0.04234
N          3.49593        1.52164        0.12423
H          4.36958        1.10414        0.43893
H          3.40672        2.41123        0.61141
C          2.83638       -0.42838       -0.03065
C          1.86814       -1.39159       -0.14859
N          2.31816       -2.40135       -0.23770
H          1.75376       -3.20216       -0.51441
H          3.29013       -2.66372       -0.38848
C          0.48721       -1.35886       -0.13417
C         -0.41508       -0.20175       -0.02771
H          0.04616       -2.34456       -0.23379
H          3.88444       -0.74624       -0.01385
H          1.52260        2.67508       -0.00650
H         -0.32026        3.26692       -0.26493
H         -2.72210        3.27436       -0.36134
H         -4.02918        0.01203        0.18237
