23
Coordinates from ORCA-job ./opt_b97-3c_parallel
N          3.09773        2.67825       -0.36269
C          2.24601        2.28148        0.28866
C          1.14401        1.37507        0.15047
C          0.22942        2.38551        0.30177
N         -1.14300        2.35234        0.25237
C         -1.91521        1.24153        0.00684
C         -1.54698       -0.12791       -0.23474
C         -2.69812       -0.96447       -0.45432
N         -3.64752       -1.57966       -0.61878
C         -0.28064       -0.72920       -0.22025
N         -0.26326       -2.08497       -0.38710
C          0.82901       -2.83609       -0.00038
N          2.10230       -2.92372        0.51122
C          2.69762       -1.68470        0.56733
C          2.23144       -0.66118       -0.20085
C          1.01659       -0.04506       -0.06506
H          2.87268       -0.33746       -1.01843
H          3.54602       -2.24073        0.99525
H          0.58261       -3.90296       -0.11765
N         -2.75922        1.95345        0.10124
H         -3.47327        1.22359        0.12825
H         -3.26155        2.83008        0.24285
H         -0.00967        3.44952        0.46272
