20
Coordinates from ORCA-job ./opt_b97-3c_parallel
N          4.83812        0.28194       -0.39166
C          3.70600        0.16942       -0.28391
C          2.29710        0.00071       -0.12100
C          1.63851        1.20246       -0.10302
N          0.37411        1.61521        0.02788
C         -0.68190        0.73816        0.20101
C         -1.81200        1.49930        0.31077
C         -2.94921        1.13563       -0.34892
N         -3.62688       -0.01794       -0.69027
C         -2.95335       -1.14026       -0.25074
C         -1.81503       -1.45451        0.43227
C         -0.68256       -0.70772        0.26237
N          0.37054       -1.60189        0.16982
C          1.70661       -1.29473        0.00176
H          2.26150       -2.24465       -0.01994
H         -1.85858       -2.20640        1.21758
H         -3.64762       -1.91326       -0.61241
H         -3.56279        1.96126       -0.73921
H         -1.86224        2.29024        1.05631
H          1.88463        2.27201       -0.18096
