27
Coordinates from ORCA-job ./opt_b97-3c_parallel
N         -1.19687       -3.90172        0.13535
C         -1.17081       -2.76453        0.23721
C         -1.09499       -1.33922        0.35960
C         -2.29612       -0.93313        0.83574
C         -2.95773       -0.04373        0.06009
C         -4.29771       -0.42299       -0.25397
N         -5.37924       -0.69197       -0.50354
C         -2.44519        1.25299       -0.26344
N         -1.18561        1.63121        0.04404
C         -0.05739        0.94798        0.36580
N          0.97916        1.78469        0.72557
C          2.18148        1.28847        1.16316
C          3.02771        0.66778        0.19618
C          4.38419        1.11572        0.06616
N          5.45591        1.50167       -0.01619
C          2.58887       -0.58428       -0.37336
N          3.22978       -1.28878       -0.93687
H          4.20075       -1.00359       -1.06870
H          3.14384       -2.19874       -1.38979
C          1.30340       -1.20097       -0.10752
C          0.07967       -0.50165        0.25657
H          1.21264       -2.25530       -0.36375
H          2.70649        2.18063        1.54038
N         -2.59987        2.25415       -0.69868
H         -3.57559        2.02097       -0.88289
H         -2.46046        3.19777       -1.05842
H         -2.61610       -1.15156        1.85377
