26
Coordinates from ORCA-job ./opt_b97-3c_parallel
N         -2.63787        0.32409       -2.16799
C         -2.42407        0.80768       -1.15264
C         -1.80271        0.75844       -0.23296
C         -1.89149        2.09003        0.07982
N         -1.00353        3.13683        0.29206
C          0.32381        2.76787        0.14775
N          0.85936        1.61894       -0.14490
C          0.60916        0.34033       -0.07166
C          1.75761       -0.44464       -0.05951
C          3.13784       -0.04382       -0.12935
N          3.66760        0.23098       -1.10503
C          1.89798       -1.89184       -0.06778
N          0.95531       -2.82869        0.14558
C         -0.39778       -2.59596        0.34914
C         -1.12173       -1.42976        0.24215
C         -2.35918       -2.11237        0.48658
N         -2.96486       -1.72460        1.37676
C         -0.76033       -0.12575       -0.03585
H         -0.39414       -3.68604        0.51960
N          2.47820       -2.84172       -0.10440
H          3.28506       -2.46565       -0.60796
H          2.67175       -3.84340       -0.02774
N          0.83064        3.71343        0.40221
H          0.51912        4.61006        0.02477
H          1.55104        3.94578        1.08713
H         -2.54175        2.95837        0.27721
