29
Coordinates from ORCA-job ./opt_b97-3c_parallel
N          4.37628        1.20733       -1.70840
C          4.22359        0.89853       -0.61991
C          2.98118        0.33735       -0.18096
C          1.93491        1.17097        0.33655
C          0.60190        0.81491        0.45676
C         -0.17961        1.93178        0.92080
C         -1.60186        2.04594        0.99525
C         -2.48982        1.34571        0.10297
N         -3.37622        2.00340        0.00132
H         -3.57998        2.97575        0.22838
H         -4.13614        1.68600       -0.59973
C         -2.28038        0.04821       -0.49615
C         -3.32673       -0.43374       -1.37148
N         -4.12615       -0.84055       -2.07819
C         -1.32171       -0.87844        0.09194
N         -1.56289       -1.96211       -0.02640
H         -1.58550       -2.22029       -1.01514
H         -2.53808       -1.96174        0.27852
C          0.06588       -0.52521        0.39111
C          0.87941       -1.65766        0.79979
N          2.18039       -1.92007        0.41052
C          3.03130       -1.03315       -0.22425
H          3.88079       -1.66221       -0.53464
N          1.10720       -2.71148        1.05075
H          0.09966       -2.71191        0.87918
H          1.25505       -3.32418        1.85254
H         -1.93571        2.98160        1.44959
H          0.35115        2.81068        1.27875
H          2.20367        2.22111        0.42730
