28
Coordinates from ORCA-job ./opt_b97-3c_parallel
N          4.89678        1.48840       -0.42908
C          3.93806        0.86754       -0.39954
C          2.70807        0.13791       -0.35032
C          1.47837        0.85476       -0.23064
C          0.12299        0.35293       -0.13565
C         -0.73795        1.52168       -0.07463
N         -2.11789        1.65979        0.01231
C         -2.96208        0.62905        0.14086
N         -3.89642        1.22157        0.18384
H         -4.47106        1.67741       -0.52728
H         -4.55717        0.85132        0.86880
C         -2.81700       -0.72827        0.23587
C         -1.62972       -1.44749        0.13299
N         -2.03721       -2.47161        0.27331
H         -2.76124       -3.19066        0.23056
H         -1.25967       -2.89769        0.77671
C         -0.30666       -1.04095       -0.08399
C          0.60115       -2.17160       -0.26438
C          1.95756       -2.24159       -0.46358
C          2.93458       -1.20704       -0.48084
H          3.95689       -1.55869       -0.61289
H          2.36778       -3.23961       -0.59570
H          0.15125       -3.15847       -0.27102
H         -3.78468       -1.23340        0.38600
N         -0.83427        2.62594       -0.09071
H         -0.20165        2.79202       -0.87617
H         -0.72676        3.43846        0.52140
H          1.62072        1.93183       -0.19798
