26
Coordinates from ORCA-job ./opt_b97-3c_parallel
N         -2.43242       -2.33530        0.84184
C         -1.88028       -1.36220        0.10167
C         -2.70889       -0.45225       -0.45815
C         -2.45861        0.95359       -0.34023
C         -1.26775        1.49718        0.11755
C          0.04415        0.85154        0.09102
C          1.06882        1.81774        0.48295
C          2.43600        1.61136        0.62806
N          3.21483        0.48218        0.39738
C          2.65419       -0.59208       -0.24181
N          1.50978       -0.75656       -0.79856
C          0.33019       -0.42245       -0.40197
C         -0.67285       -1.44555       -0.50156
H         -0.36721       -2.39472       -0.93447
N          3.49883       -1.29575       -0.31169
H          3.42872       -2.21090       -0.75420
H          4.49342       -1.08365       -0.24644
H          2.99882        2.46500        1.03608
H          0.73246        2.81041        0.76988
H         -1.28956        2.55526        0.37132
N         -3.31428        1.61839       -0.54778
H         -4.25711        1.27756       -0.36450
H         -3.41640        2.56190       -0.91845
H         -3.68133       -0.76656       -0.83436
H         -1.86901       -2.91050        1.46521
H         -3.34970       -2.20580        1.26781
