25
Coordinates from ORCA-job ./opt_b97-3c_parallel
N         -2.16509       -3.08241        1.46012
C         -1.33736       -2.47464        0.95879
C         -0.30446       -1.67050        0.37149
C          0.69335       -2.58876        0.19795
N          1.87470       -2.56926       -0.41143
C          2.48007       -1.38307       -0.75986
C          2.21120       -0.05405       -0.28208
C          3.37038        0.77759       -0.44655
N          4.27391        1.46820       -0.55627
C          0.95719        0.44342        0.11164
C          1.05017        1.75473        0.74598
C         -0.00692        2.52672        1.15389
N         -1.08895        2.77784        0.34242
C         -1.69974        1.78941       -0.39422
N         -2.36513        2.60944       -0.72712
H         -2.66495        3.57255       -0.87996
H         -3.04690        2.02756       -1.21602
C         -1.57184        0.38446       -0.11633
C         -2.74614       -0.34807       -0.49726
N         -3.70043       -0.87817       -0.83013
C         -0.26245       -0.23829        0.12546
H          0.32855        3.43684        1.67563
H          2.01811        2.12721        1.06544
H          3.31097       -1.97701       -1.17089
H          0.91885       -3.66318        0.29090
