29
Coordinates from ORCA-job ./opt_b97-3c_parallel
N          0.65105        4.18533        1.07675
C          0.81598        3.09820        0.76928
C          0.98289        1.71567        0.40349
C          2.32595        1.25822        0.61311
C          2.92926        0.11676       -0.00331
C          4.36324        0.23506       -0.14641
N          5.49923        0.32581       -0.22733
C          2.19310       -1.10896       -0.28586
N          2.88828       -1.89804       -0.66723
H          2.66150       -2.84157       -0.98020
H          3.90262       -1.81771       -0.74294
C          0.88225       -1.38737        0.11505
C          0.57746       -2.81063        0.20392
N         -0.01015       -3.74739       -0.08802
C         -0.23879       -0.44425        0.20872
N         -1.38507       -1.08459        0.55794
C         -2.70239       -0.69267        0.44002
C         -3.22663        0.32497       -0.31549
C         -4.63346        0.38063       -0.58529
N         -5.42773       -0.44071       -0.63069
C         -2.50598        1.44491       -0.82575
C         -1.19711        1.73671       -0.53479
C         -0.13973        0.99121       -0.00997
H         -0.96414        2.74505       -0.86500
H         -3.07885        2.20522       -1.35262
N         -2.94324       -1.63239        0.97309
H         -2.82367       -2.50730        1.48417
H         -3.93041       -1.59809        0.71023
H          3.02482        2.02164        0.95394
