33
Coordinates from ORCA-job ./opt_b97-3c_parallel
N         -2.77886       -3.46727       -1.87628
C         -2.52515       -2.70139       -1.06613
C         -1.70757       -1.61893       -0.56294
C         -2.67295       -0.71024       -0.16085
C         -2.43072        0.52531        0.53148
C         -3.60931        1.07395        1.16328
N         -4.55655        1.47888        1.65856
C         -1.26179        1.25758        0.31920
N         -1.30521        2.31300        0.67790
H         -1.85101        2.64786        1.47054
H         -0.39837        2.77499        0.72877
C         -0.06533        0.89002       -0.30743
C          0.64296        1.79397       -1.10530
N          0.31051        2.73224       -1.59725
H         -0.66298        2.79015       -1.30159
H          0.50791        3.58240       -2.12173
C          1.94999        1.62319       -1.70174
C          2.98097        0.93164       -1.11812
C          2.93651        0.16995        0.09747
C          4.24299       -0.08059        0.66143
N          5.29010       -0.26842        1.07982
C          1.77352       -0.48108        0.51214
N          1.92960       -1.20477        1.34673
H          1.11732       -1.65571        1.76450
H          2.64569       -1.15711        2.06983
C          0.47356       -0.41738       -0.00501
C         -0.32509       -1.56143       -0.12850
N          0.03590       -2.61264       -0.14584
H         -0.24612       -3.52073       -0.51104
H          1.05384       -2.61413       -0.10036
H          3.97450        1.11165       -1.51996
H          2.26892        2.26534       -2.52792
H         -3.73726       -0.94753       -0.23611
