26
Coordinates from ORCA-job ./opt_b97-3c_parallel
N         -5.12823       -1.49509        0.43179
C         -4.03753       -1.17016        0.32776
C         -2.65923       -0.80169        0.19743
C         -1.65945       -1.79561        0.41566
C         -0.24523       -1.67537        0.25411
C          0.55484       -0.48868        0.02692
C          0.03459        0.87349       -0.16242
N          0.87280        1.96945       -0.38500
C          2.13216        1.99109        0.15143
C          2.75078        1.17169        1.03189
C          3.00292        0.10222        0.22674
C          1.97391       -0.82951       -0.18183
C          2.38905       -2.09913       -0.72018
N          2.71698       -3.09394       -1.17817
N          4.10577       -0.01231        0.13535
H          4.78554        0.70767       -0.10221
H          4.25193       -0.77723       -0.52208
H          3.44454        1.55189        1.78409
H          2.57705        2.95408       -0.14007
C         -1.29339        1.25655       -0.32839
C         -1.77530        2.57479       -0.67072
N         -2.11017        3.35211       -1.43953
C         -2.52545        0.51410       -0.17871
H         -3.46312        1.05241       -0.34235
H          0.26442       -2.61613        0.42969
H         -2.01756       -2.78916        0.67118
