24
Coordinates from ORCA-job ./opt_b97-3c_parallel
N         -0.60859       -3.88465        0.57958
C         -0.07584       -2.88918        0.40054
C          0.54416       -1.61411        0.16590
C         -0.23574       -0.45338        0.02571
N         -1.57051       -0.69268       -0.13583
C         -2.44438        0.37886       -0.19844
N         -2.72054        1.73057       -0.15136
C         -1.57771        2.46990        0.08309
N         -0.38579        1.98491        0.22358
C          0.26232        0.85898        0.15244
C          1.54621        1.38449        0.31569
C          2.69426        0.58047        0.04601
C          2.70324       -0.65045       -0.51046
C          1.97735       -1.63761        0.06004
H          2.46005       -2.59410        0.23729
H          3.21725       -0.83723       -1.45348
N          3.71020        0.99975        0.13512
H          3.88716        1.94867       -0.19198
H          4.61403        0.52951        0.15083
H          1.75189        2.42778        0.58002
H         -1.62331        3.56662        0.16998
N         -3.39338       -0.15230       -0.38099
H         -4.28295        0.33221       -0.49791
H         -3.54845       -1.10977       -0.69516
