25
Coordinates from ORCA-job ./opt_b97-3c_parallel
N          4.37708        1.52840       -0.60729
C          3.40592        0.93543       -0.50031
C          2.19975        0.17927       -0.32970
C          2.31459       -1.23290       -0.20495
C          1.25665       -2.17160       -0.04861
C         -0.15955       -1.88387        0.09849
N         -0.49106       -2.93642        0.22106
H         -0.33179       -3.92652        0.04391
H         -1.06917       -2.59042       -0.54279
C         -0.87629       -0.60809        0.08805
C         -2.28003       -0.87152        0.37827
C         -3.40767        0.00104        0.46017
C         -3.48050        1.39106        0.18197
C         -2.41036        2.24516       -0.19340
C         -1.01884        1.94472       -0.31234
C         -0.28197        0.69730       -0.17289
C          1.07145        0.97021       -0.34403
H          1.32055        2.01732       -0.50069
H         -0.46347        2.84344       -0.56189
H         -2.68206        3.28174       -0.36827
H         -4.46117        1.84974        0.26101
H         -4.34754       -0.47106        0.72866
H         -2.57839       -1.88882        0.60660
H          1.64626       -3.19713       -0.00915
H          3.31661       -1.64980       -0.25318
