26
Coordinates from ORCA-job ./opt_b97-3c_parallel
N         -3.77768       -0.43293       -0.63666
C         -2.73567       -0.25936       -0.30011
N         -2.16754        0.99624       -0.47599
C         -0.86853        1.18828       -0.12745
N         -1.19499        2.24308       -0.27002
H         -1.01538        2.66019       -1.18822
H         -1.72272        2.96048        0.23706
C          0.24382        0.36578        0.12065
C          1.44901        1.12569        0.40409
N          2.77749        0.74432        0.31599
C          3.29308       -0.48695       -0.04680
C          2.66711       -1.69843       -0.19244
C          1.27020       -1.98050       -0.05437
C          0.21129       -1.09519        0.06174
C         -1.05567       -1.78647        0.15778
C         -2.21970       -1.20007        0.52737
H         -2.62428       -1.35836        1.52749
H         -1.04450       -2.87310        0.09347
H          1.05066       -3.04513       -0.11543
H          3.30015       -2.56059       -0.38539
H          4.37335       -0.67134       -0.16550
N          2.03807        2.04777        0.59910
H          2.15075        2.08994        1.61652
H          2.72916        2.71461        0.24079
H         -4.51054        0.05270       -1.15920
H         -4.16259       -1.36786       -0.47961
