26
Coordinates from ORCA-job ./opt_b97-3c_parallel
N          4.32995        1.81752        0.29055
C          3.37320        1.21078        0.13942
C          2.15159        0.46625       -0.01144
C          0.94278        1.23356        0.05868
C         -0.42341        0.78066       -0.02911
C         -1.32141        1.91482       -0.05368
C         -2.62223        1.85289       -0.42258
C         -3.44601        1.00466        0.22622
N         -3.40627       -0.35399        0.44794
C         -2.23660       -0.96967        0.17731
N         -2.96485       -1.79113        0.33235
H         -2.27126       -2.17424        0.97345
H         -3.75340       -2.43791        0.34403
C         -0.91348       -0.59250       -0.07170
C         -0.09024       -1.76376       -0.26564
C          1.26718       -1.89633       -0.42424
C          2.28910       -0.88524       -0.28230
N          3.22361       -1.47109       -0.41767
H          4.04870       -0.98775       -0.06392
H          3.54676       -2.07066       -1.17510
H          1.57236       -2.92957       -0.61904
H         -0.63327       -2.70277       -0.32704
H         -4.34257        1.61685        0.41123
H         -2.97947        2.42867       -1.27434
H         -0.88710        2.90637        0.04317
H          1.10355        2.30291        0.17752
