27
Coordinates from ORCA-job ./opt_b97-3c_parallel
N         -3.79576       -1.62971       -1.84412
C         -3.49439       -1.31585       -0.78577
C         -2.44611       -0.46060       -0.31537
C         -1.11286       -0.94991       -0.49451
C         -0.01698       -0.40519        0.08320
C          0.88668       -1.23738        0.68716
N          2.24579       -1.46480        0.52822
C          2.84930       -0.58234       -0.35520
N          2.48849        0.48698       -0.99508
C          1.57313        1.32796       -0.61667
C          0.29183        0.90580       -0.09741
C         -0.56345        1.98916        0.32068
N         -0.27359        3.05242        0.42688
H          0.19103        3.44385        1.24545
H         -0.96416        3.74365        0.13408
C         -1.90957        1.80750        0.63047
C         -2.73366        0.73286        0.32445
H         -3.78725        0.90768        0.52786
H         -2.45544        2.65683        1.04588
H          2.05405        2.29802       -0.81498
N          3.91153       -0.79901       -0.55318
H          4.25441       -1.71286       -0.25989
H          4.44009       -0.54873       -1.38790
N          0.92815       -2.01160        1.47209
H         -0.02980       -1.88984        1.79827
H          1.41331       -2.52879        2.20472
H         -0.99198       -1.89019       -1.02833
