28
Coordinates from ORCA-job ./opt_b97-3c_parallel
N          4.64096        0.96604        0.73151
C          3.65779        0.48554        0.40247
C          2.40793       -0.11413        0.04298
C          1.43610        0.81428       -0.26134
C          0.05454        0.69509       -0.26083
C         -0.66453        1.85434       -0.54260
N         -0.32179        2.77815       -1.05110
H          0.50285        2.48015       -1.57165
H         -0.77501        3.48090       -1.63506
C         -1.96763        2.26607       -0.05688
C         -2.73179        1.56343        0.83806
N         -2.81120        0.19900        1.00914
C         -1.96768       -0.73454        0.44878
N         -2.78690       -1.41214        0.75422
H         -3.35072       -1.88925        1.45676
H         -2.08621       -2.09268        0.45373
C         -0.61906       -0.57359       -0.05339
C         -0.13168       -1.81899       -0.61829
N         -0.69994       -2.72738       -0.91269
H         -1.33948       -2.35839       -1.61782
H         -0.16580       -3.44674       -1.40306
C          1.24691       -2.24879       -0.67059
C          2.34416       -1.53326       -0.10217
H          3.27140       -2.08372        0.02793
H          1.49173       -3.27443       -0.95733
H         -3.65068        1.87405        1.35795
H         -2.33216        3.27829       -0.25790
H          1.81133        1.83473       -0.32403
