27
Coordinates from ORCA-job ./opt_b97-3c_parallel
N          1.15381        4.10226       -0.29578
C          1.06339        2.96566       -0.22833
C          0.98400        1.53634       -0.10641
C          2.03027        0.93268        0.66835
C          2.43252       -0.43204        0.52696
C          3.68556       -0.83808        1.07980
N          4.68801       -1.19869        1.49025
C          1.79029       -1.28940       -0.42180
N          0.42450       -1.40345       -0.57825
C         -0.52328       -0.49645       -0.24428
C         -0.22220        0.92877       -0.45738
N         -1.12729        1.64151       -1.17140
C         -2.41349        1.66304       -0.68489
C         -2.82561        1.21572        0.52896
C         -2.94202       -0.12287        0.29343
C         -1.83892       -0.97695       -0.10537
C         -2.06782       -2.39702       -0.19949
N         -2.19710       -3.53014       -0.26932
N         -3.98985       -0.42286        0.50747
H         -4.26689       -1.32703        0.88847
H         -4.85268        0.09961        0.35866
H         -3.51725        1.79740        1.14244
H         -2.99237        2.28429       -1.38623
N          1.85015       -2.28516       -0.90167
H          2.85735       -2.45185       -0.91422
H          1.43119       -3.09914       -1.35359
H          2.73410        1.59347        1.17089
