25
Coordinates from ORCA-job ./opt_b97-3c_parallel
N         -1.99425       -2.09584        0.42044
C         -1.59847       -1.08012        0.22050
C         -2.82939       -0.31786        0.21017
C         -2.97443        1.05077       -0.17114
C         -1.94409        2.00110       -0.43967
C         -0.58265        1.87076       -0.32999
C          0.22225        0.69292       -0.11054
C          1.55144        1.07360        0.10698
N          2.65117        0.30847        0.49268
C          2.65020       -1.05560        0.29416
C          1.90506       -1.65026       -0.66454
C          0.65821       -1.76021       -0.14835
C         -0.28868       -0.67075       -0.00142
H          0.30747       -2.77993       -0.01567
H          2.31991       -2.43247       -1.29687
H          3.48745       -1.71210        0.57827
N          2.32470        1.85476        0.23182
H          3.14986        2.44775        0.31325
H          1.59931        2.29118        0.80005
H         -0.04458        2.80632       -0.45915
H         -2.32947        2.98934       -0.67373
H         -3.99337        1.42243       -0.23210
H         -3.79181       -0.80319        0.40154
H         -1.45577       -2.78674        0.93950
H         -2.95361       -2.43818        0.40558
