22
Coordinates from ORCA-job ./opt_b97-3c_parallel
N         -4.93559        0.23485        1.01156
C         -3.84989        0.15064        0.66761
C         -2.49523        0.00054        0.23719
C         -1.93073       -1.31381        0.13812
N         -0.62857       -1.56971       -0.09222
C          0.42720       -0.73335       -0.12288
N          1.68495       -1.35714       -0.10674
C          2.85578       -0.61084       -0.04395
N          3.49223       -1.51425       -0.12115
H          3.51200       -2.52547       -0.26320
H          4.47089       -1.22651       -0.16725
C          3.36830        0.65475        0.05532
C          2.52238        1.69253        0.30487
N          1.25428        1.54403        0.10176
C          0.27406        0.71066       -0.06047
C         -0.77530        1.46850       -0.50951
C         -2.05274        1.14189       -0.36913
H         -2.78523        1.82469       -0.80216
H         -0.57538        2.39432       -1.05446
H          2.80773        2.64870        0.77149
H          4.44311        0.82487        0.10743
H         -2.45979       -2.24674        0.38756
