27
Coordinates from ORCA-job ./opt_b97-3c_parallel
N          0.48571        3.81209        0.30427
C          0.18008        2.71458        0.22408
C         -0.25180        1.34483        0.12526
C         -1.65286        1.27177        0.44442
C         -2.54208        0.19108        0.17978
C         -3.94547        0.41692        0.32860
N         -5.07431        0.55066        0.43387
C         -2.11224       -1.06366       -0.33863
N         -0.88393       -1.66287       -0.18266
C          0.33147       -1.14485        0.08839
C          1.21203       -2.17963        0.37037
C          2.62609       -2.19985        0.57415
C          3.50336       -1.21344        0.24050
C          3.18855        0.02225       -0.25827
N          4.09617        0.59342       -0.53052
H          4.15944        1.55773       -0.85406
H          5.05546        0.25823       -0.45184
C          2.00871        0.72272       -0.37621
C          0.65285        0.27929       -0.04977
H          2.13389        1.74269       -0.73265
H          4.55384       -1.48807        0.34907
H          3.02967       -3.15590        0.89508
H          0.79247       -3.17281        0.51876
N         -2.54008       -2.03177       -0.66155
H         -2.46086       -2.92455       -1.14800
H         -3.52857       -1.78022       -0.70442
H         -2.14116        2.20019        0.73924
