27
Coordinates from ORCA-job ./opt_b97-3c_parallel
N          4.69893        0.36259        0.50849
C          3.56867        0.29647        0.34869
C          2.12688        0.25103        0.13150
C          1.51007        1.55440        0.02008
C          0.14132        1.89438       -0.28308
C         -1.02359        1.04966       -0.22005
C         -1.06749       -0.40090       -0.01350
N         -2.30209       -1.06498        0.02874
C         -3.44904       -0.40099        0.35676
C         -3.91989        0.77994        0.79957
C         -3.54408        1.59126       -0.22000
C         -2.18095        1.86991       -0.58253
H         -2.03007        2.81455       -1.09667
H         -4.27111        2.29831       -0.60828
H         -4.92238        0.84994        1.21567
H         -3.96966       -1.36744        0.28208
C          0.03185       -1.28095       -0.03913
C         -0.28553       -2.70871       -0.05834
N         -0.38794       -3.77950       -0.44744
C          1.47335       -0.98216       -0.01854
N          2.17591       -1.85618       -0.07130
H          3.18862       -1.85157       -0.18150
H          1.83250       -2.64505       -0.61782
H         -0.07834        2.95294       -0.45009
N          2.02611        2.53826        0.06768
H          3.02973        2.48304        0.23553
H          1.68299        3.32430        0.61663
