30
Coordinates from ORCA-job ./opt_b97-3c_parallel
N         -5.40048       -1.15582       -0.23343
C         -4.31594       -0.79495       -0.21539
C         -2.95526       -0.34843       -0.14968
C         -2.51291        0.86259        0.46939
N         -3.20884        1.58065        0.94523
H         -4.11583        1.17124        1.16462
H         -3.14891        2.45411        1.46529
C         -1.18039        1.39923        0.33415
C          0.05022        0.72117       -0.07259
C          0.17134       -0.70095       -0.35619
N         -0.85811       -1.52400       -0.80638
C         -2.16237       -1.27084       -0.76045
H         -2.25676       -2.23738       -1.27833
C          1.39471       -1.48105       -0.21756
C          1.39185       -2.92061       -0.40500
N          1.39463       -4.05897       -0.51586
C          2.60264       -1.07616        0.34161
C          3.16758        0.25683        0.31693
C          2.54222        1.37643       -0.20512
C          1.12837        1.67499       -0.33676
C          0.79928        3.02981       -0.72673
N          0.57021        4.10330       -1.04643
N          3.33877        2.14373       -0.33242
H          3.05217        3.04149       -0.71997
H          4.35517        2.16466       -0.27644
H          4.22282        0.36896        0.62394
N          3.47653       -1.66121        0.71609
H          3.15999       -2.60713        0.92468
H          4.44255       -1.60336        1.03237
H         -1.07584        2.41846        0.69846
