25
Coordinates from ORCA-job ./opt_b97-3c_parallel
N          0.69218        2.69592       -1.75710
C          1.30647        2.49249       -0.81257
C          1.12548        1.12150       -0.43524
C          2.47223        0.76328       -0.43005
N          3.08313       -0.37634        0.08903
C          2.34996       -1.51846        0.31444
C          1.14971       -1.85898       -0.22504
C          0.06519       -1.06891        0.00676
N         -0.98907       -1.92950        0.03382
C         -2.27426       -1.40948        0.00525
N         -3.18665       -0.37690        0.00054
C         -2.54883        0.84240        0.12905
C         -1.21201        1.07557        0.28212
C         -1.27298        1.71569        1.18876
N         -0.78666        2.22012        2.09384
C         -0.05869        0.38236       -0.00381
H         -3.57772        1.24011        0.10775
N         -3.00619       -2.22759       -0.10699
H         -3.97704       -2.29131        0.20388
H         -2.94539       -2.83733       -0.92328
H          1.12030       -2.62976       -0.99601
N          3.18998       -2.08823        0.75828
H          4.19680       -1.90702        0.76369
H          3.08161       -2.93618        1.31806
H          3.46710        1.20234       -0.61455
