27
Coordinates from ORCA-job ./opt_b97-3c_parallel
N         -5.44169       -0.60427        0.03814
C         -4.29947       -0.64597        0.03618
C         -2.87063       -0.62790        0.02654
C         -2.14104       -1.81513        0.35033
N         -0.77144       -1.99931        0.32995
C          0.23342       -1.06587        0.13125
C          1.36315       -1.80399        0.35502
C          2.58947       -1.47647       -0.12752
N          3.29799       -0.28942       -0.14933
C          2.65091        0.93691        0.02665
N          3.71827        1.26063        0.07424
H          4.71759        1.31583       -0.14321
H          3.54723        2.10032        0.63668
C          1.27059        1.18758       -0.04192
C          1.25065        2.62835       -0.08578
N          1.05942        3.22576        0.86984
C          0.13436        0.36535       -0.07816
N         -1.05078        1.07335       -0.32766
C         -2.30182        0.57937       -0.30537
N         -2.58521        1.61008       -0.61231
H         -2.54706        2.50833       -1.09857
H         -3.58744        1.41173       -0.54585
N          3.38576       -2.19986       -0.40061
H          4.40537       -2.28297       -0.43835
H          3.05514       -3.12473       -0.68831
H          1.31997       -2.66348        1.03233
H         -2.69583       -2.73319        0.60297
