29
Coordinates from ORCA-job ./opt_b97-3c_parallel
N          1.48856        4.22613       -0.58185
C          1.39635        3.10024       -0.41323
C          1.30414        1.68281       -0.16904
C          2.59458        1.25726       -0.45125
C          3.12902       -0.03037       -0.14590
C          4.54104       -0.16667       -0.35567
N          5.22589       -1.06016       -0.55601
C          2.45870       -1.09535        0.39462
N          1.10377       -1.32688        0.39579
C          0.00351       -0.50355        0.13824
C          0.07020        0.95172        0.13686
C         -0.97594        1.81054        0.44792
C         -2.37104        1.56009        0.59611
C         -3.06003        0.44615        0.18239
C         -4.45626        0.81300        0.24344
N         -5.56949        1.07225        0.28292
C         -2.55440       -0.83981       -0.24564
C         -1.19616       -1.33171       -0.05817
C         -1.01647       -2.76483       -0.20913
N         -0.82317       -3.88516       -0.32582
N         -3.37419       -1.52598       -0.55997
H         -3.32018       -2.44820       -0.99131
H         -4.35136       -1.24111       -0.63031
H         -2.92269        2.44437        0.91876
H         -0.76877        2.85374        0.65851
N          2.51815       -2.13747        0.76378
H          3.52291       -2.21194        0.59091
H          2.25928       -2.99284        1.25665
H          3.34544        1.96269       -0.81871
