25
Coordinates from ORCA-job ./opt_b97-3c_parallel
N          5.65671       -0.15774       -0.18109
C          4.52164       -0.03978       -0.15953
C          3.10519        0.15605       -0.14081
C          2.49601       -0.56569        0.87860
C          1.07303       -0.70059        1.02876
C          0.30391       -0.40224       -0.14115
C          0.18364        1.00701       -0.35512
N         -0.90869        1.75241       -0.08681
C         -2.15187        1.32178        0.22503
C         -2.61204       -0.01785       -0.05384
C         -3.93346       -0.43367        0.29446
N         -5.00142       -0.73159        0.56692
C         -1.98368       -0.94300       -0.83536
C         -0.71272       -1.32627       -0.54848
C         -0.42729       -2.70862       -0.76453
N         -0.16786       -3.80968       -0.91918
H         -2.47201       -1.31316       -1.73694
N         -2.33573        2.32982        0.63186
H         -2.20083        3.29585        0.92836
H         -3.33256        2.13807        0.72906
N          1.24006        1.71618       -0.88762
C          2.51088        1.16178       -1.00069
H          3.25440        1.72020       -1.59168
H          0.67554       -1.28450        1.85430
H          3.10747       -1.10000        1.60368
