28
Coordinates from ORCA-job ./opt_b97-3c_parallel
N         -5.66760       -0.62241       -0.67099
C         -4.54278       -0.61485       -0.47851
C         -3.13206       -0.65259       -0.24941
C         -2.35124       -1.75480       -0.76474
N         -1.01781       -1.83584       -0.57309
C         -0.28045       -0.78775       -0.16929
N          0.71052       -1.62558       -0.06982
C          1.94450       -1.54356        0.32719
C          2.71847       -0.33564        0.18264
C          4.05591       -0.29339        0.69373
N          5.12887       -0.29837        1.08439
C          2.20146        0.78942       -0.41486
C          0.89677        1.21549       -0.36435
C          0.21993        2.25170       -1.08855
N         -0.35597        3.04895       -1.67129
C         -0.19670        0.54643        0.13308
C         -1.39374        0.67981        0.78707
C         -1.09549        1.48377        1.93219
N         -0.82406        2.13898        2.82708
C         -2.70356        0.34984        0.58555
H         -3.44689        0.83329        1.22353
N          2.90692        1.25402       -1.46406
H          3.92109        1.14175       -1.48694
H          2.70622        2.18044       -1.84266
N          1.95506       -2.57868        0.71202
H          1.68820       -3.50926        1.03032
H          2.96157       -2.50672        0.86125
H         -2.87514       -2.57613       -1.27860
