25
Coordinates from ORCA-job ./opt_b97-3c_parallel
N         -1.73769       -3.63046       -0.20218
C         -1.58709       -2.50165       -0.11297
C         -1.34107       -1.09240       -0.00150
C         -0.02583       -0.58175        0.31362
C          0.97790       -1.48723        0.54791
C          2.15496       -1.46119       -0.14227
N          3.05369       -0.46279       -0.48590
C          2.65506        0.79624       -0.06586
C          1.56943        1.29081        0.61155
C          0.29899        0.82657        0.37433
N         -0.52263        1.93853        0.25636
C         -1.88685        1.98557        0.02643
C         -2.78764        0.97403       -0.21427
C         -2.53320       -0.43547       -0.24809
H         -3.42233       -1.02459       -0.47475
H         -3.82190        1.25147       -0.40694
N         -2.09281        3.07150        0.05037
H         -2.82809        3.35344       -0.60056
H         -2.09724        3.78470        0.78153
H          1.74636        1.91876        1.48451
N          3.59772        1.19363       -0.48966
H          3.84133        1.66136       -1.36495
H          4.49124        1.03443       -0.01836
H          2.38601       -2.50189       -0.42305
H          0.87397       -2.19008        1.37426
