28
Coordinates from ORCA-job ./opt_b97-3c_parallel
N         -1.05131       -3.39421        1.80204
C         -1.35756       -2.44364        1.24781
C         -1.71375       -1.26019        0.52524
C         -0.49446       -0.53634        0.23325
C         -0.48763        0.84793       -0.11724
N          0.45492        1.69793        0.29180
C          1.70920        1.32639        0.60637
C          2.38311        0.12548        0.13494
C          3.80346        0.08569        0.31970
N          4.93894        0.09150        0.44356
C          1.74908       -0.87591       -0.71807
C          0.31684       -1.08362       -0.81613
H         -0.08533       -1.82934       -1.50462
N          2.21299       -1.66497       -1.33875
H          3.20390       -1.51352       -1.53033
H          2.05467       -2.66483       -1.46512
N          1.83128        2.30386        1.10383
H          1.65717        3.12729        1.67876
H          2.84393        2.18686        1.07389
N         -1.50440        1.60530       -0.38563
C         -2.70653        1.14721       -0.54222
C         -3.42952        0.38295        0.33029
C         -2.94861       -0.75217        0.84773
H         -3.58904       -1.30638        1.53182
H         -4.42769        0.70902        0.61981
N         -3.03269        1.93764       -1.23887
H         -2.83360        2.84613       -1.65547
H         -4.03052        1.77469       -1.37391
