26
Coordinates from ORCA-job ./opt_b97-3c_parallel
N          4.33347        1.82571        0.31722
C          3.37714        1.22071        0.15661
C          2.15914        0.47428       -0.00503
C          2.29981       -0.87419       -0.28627
N          3.23531       -1.45669       -0.42602
H          4.06525       -0.96243       -0.09744
H          3.54574       -2.06289       -1.18306
C          1.28024       -1.88769       -0.43362
C         -0.07713       -1.75998       -0.27124
C         -0.90366       -0.59128       -0.07487
C         -2.22545       -0.97192        0.17559
N         -3.39703       -0.35730        0.44376
C         -3.44028        0.99953        0.21533
C         -2.61701        1.84851       -0.43325
C         -1.31810        1.91449       -0.05798
C         -0.41596        0.78273       -0.03045
C          0.94774        1.23849        0.06396
H          1.10519        2.30789        0.18939
H         -0.88714        2.90723        0.04107
H         -2.97405        2.42629       -1.28387
H         -4.33851        1.61046        0.39630
N         -2.95128       -1.79514        0.33300
H         -3.74594       -2.43116        0.39490
H         -2.23691       -2.16918        0.95670
H         -0.61790       -2.70079       -0.33409
H          1.58840       -2.91869       -0.63377
