26
Coordinates from ORCA-job ./opt_b97-3c_parallel
N         -5.45121       -0.73600       -0.04035
C         -4.34315       -0.45737       -0.00172
C         -2.96363       -0.07492        0.02475
C         -2.61482        1.27158        0.31314
C         -1.31261        1.85257        0.27609
C         -0.01343        1.23504        0.07967
C          0.94525        2.32021        0.06105
C          2.35220        2.30147       -0.15978
C          3.22029        1.25102       -0.21281
C          2.88447       -0.14845       -0.04716
N          3.94169       -0.51244       -0.03227
H          4.91208       -0.21580       -0.11304
H          3.96076       -1.47199        0.30932
C          1.62392       -0.75289        0.00021
C          1.88725       -2.17273        0.15051
N          2.08775       -3.28856        0.30388
C          0.26419       -0.18948       -0.05915
C         -0.70653       -1.17957       -0.24001
C         -2.13668       -1.12989       -0.25497
H         -2.59875       -2.09228       -0.46684
H         -0.41047       -2.19700       -0.45711
H          4.25767        1.59146       -0.33634
H          2.78495        3.29469       -0.23196
H          0.57411        3.33734        0.13854
H         -1.35596        2.92382        0.44473
H         -3.43577        1.95606        0.50639
