25
Coordinates from ORCA-job ./opt_b97-3c_parallel
N         -3.37011       -0.95543       -1.24143
C         -2.70960       -0.53135       -0.15360
C         -3.21525        0.51587        0.53760
C         -2.47024        1.71724        0.75722
N         -1.14454        1.88858        0.37259
C         -0.16532        0.90310        0.20594
C          1.10492        1.55930       -0.06647
C          2.38438        0.93150       -0.34500
N          2.74107       -0.41084       -0.28416
C          1.84149       -1.31643        0.21641
N          0.67783       -1.22935        0.75080
C         -0.31021       -0.45997        0.46032
C         -1.59710       -1.09370        0.37303
H         -1.64795       -2.15245        0.61375
N          2.36365       -2.28656        0.21283
H          2.08791       -3.13273        0.70920
H          3.36850       -2.36105        0.05740
N          3.41326        1.19220       -0.64133
H          3.24453        2.19716       -0.61436
H          4.30984        1.06641       -1.10929
H          1.09092        2.64196       -0.16718
H         -3.26298        2.40469        1.09089
H         -4.26057        0.52372        0.83418
H         -4.30521       -0.59999       -1.44033
H         -3.35555       -1.93943       -1.50417
