26
Coordinates from ORCA-job ./opt_b97-3c_parallel
N          4.70713        1.14995        0.23001
C          3.69779        0.61373        0.25442
C          2.43508       -0.06172        0.24443
C          2.44124       -1.47546        0.40151
N          1.37805       -2.33350        0.39127
C          0.06039       -1.98687        0.22569
C         -0.63359       -0.79963        0.06347
C         -2.05167       -1.11738       -0.07870
N         -2.52812       -2.12360       -0.09507
H         -1.92476       -2.27816       -0.90094
H         -3.37572       -2.66532       -0.25355
C         -3.17483       -0.31413       -0.23109
C         -3.22784        1.10841       -0.26618
C         -2.18660        1.98882       -0.18574
C         -0.82545        1.71818       -0.06780
N         -0.46519        2.76999       -0.06405
H         -0.54991        3.77827       -0.17851
H         -0.18735        2.60247        0.90136
C         -0.06904        0.54526        0.03398
C          1.37170        0.80854        0.10129
H          1.67772        1.84803        0.02359
H         -2.57683        3.01609       -0.24294
H         -4.22925        1.51399       -0.37301
H         -4.18800       -0.72306       -0.32689
H          0.05049       -3.08401        0.30970
H          3.20938       -2.25087        0.53931
