27
Coordinates from ORCA-job ./opt_b97-3c_parallel
N          4.67615       -0.02229        0.13006
C          3.71147        0.28354       -0.40941
C          2.62058        0.17738       -0.24766
C          1.89145       -0.97533       -0.43541
N          0.63420       -1.46383       -0.37324
C         -0.47463       -0.71982       -0.12990
N         -1.56811       -1.42211       -0.10889
C         -2.79562       -1.26320        0.28380
N         -3.06925       -1.69314        1.26464
H         -2.87470       -2.55604        1.77509
H         -4.03855       -1.46194        1.49236
C         -3.45318       -0.17488       -0.21833
C         -2.75845        0.99289       -0.38118
N         -1.50909        1.49245       -0.31585
C         -0.40297        0.73943       -0.10619
N          0.69972        1.42809       -0.04098
C          1.93094        1.21788        0.32923
N          1.88127        1.80908        1.26969
H          1.69308        2.67688        1.77334
H          2.83861        1.55684        1.52370
N         -3.13435        1.91806       -0.84931
H         -4.09657        1.67864       -1.09450
H         -2.89154        2.69896       -1.46024
H         -4.54164       -0.17718       -0.27746
N          1.94817       -1.99540       -0.86699
H          2.94043       -1.82271       -1.04283
H          1.70787       -2.77989       -1.47780
