25
Coordinates from ORCA-job ./opt_b97-3c_parallel
N         -4.77776       -0.17685        0.04940
C         -3.64515       -0.03642        0.00124
C         -2.21145        0.10087       -0.04071
C         -1.20120       -0.93423        0.06897
N         -1.68864       -1.92250        0.20470
H         -2.69634       -2.07697        0.17555
H         -1.31534       -2.61933        0.84694
C          0.23634       -0.70167       -0.02932
C          1.02034       -1.92574       -0.08484
C          2.31475       -1.97625       -0.47693
C          3.23199       -1.29294        0.23849
N          3.34781        0.05469        0.49500
C          2.26681        0.81119        0.21224
N          3.04729        1.58037        0.38181
H          2.37269        2.18716        0.84560
H          3.95751        2.02224        0.51178
C          0.91372        0.59841       -0.05748
C          0.28962        1.88389       -0.24384
N         -1.01928        2.27801       -0.39645
C         -2.04414        1.43435       -0.28834
H         -2.64064        2.34620       -0.44779
H          0.12030        2.96675       -0.35123
H          4.01532       -2.04794        0.41026
H          2.60715       -2.56032       -1.34810
H          0.50896       -2.88026       -0.00514
