25
Coordinates from ORCA-job ./opt_b97-3c_parallel
N          2.65018        2.96253        0.78316
C          2.24218        1.92557        0.52802
C          1.76804        0.60855        0.21247
C          2.79692       -0.40336        0.40823
N          2.69279       -1.74005        0.28760
C          1.70466       -2.35417       -0.35967
N          0.92658       -1.72638       -1.16671
C          0.04469       -0.96633       -0.61879
C         -1.30223       -1.46285       -0.63414
C         -2.34769       -0.91987        0.02958
N         -3.19451       -1.57068        0.84259
H         -2.88309       -2.38611        1.36657
H         -3.85192       -1.05116        1.42132
C         -2.73580        0.30016       -0.40658
C         -1.87804        1.44497       -0.30315
N         -2.40476        2.40970       -0.40843
H         -1.90625        3.16476       -0.87557
H         -3.36709        2.72122       -0.28840
C         -0.52741        1.38052        0.01305
C          0.35566        0.29365       -0.10393
H         -0.12071        2.34914        0.27916
H         -3.77851        0.46501       -0.67354
H         -1.46689       -2.42465       -1.11235
H          1.98964       -3.41138       -0.24923
H          3.82999       -0.30669        0.77384
