28
Coordinates from ORCA-job ./opt_b97-3c_parallel
N         -4.83372       -0.13872       -0.01081
C         -3.71770        0.10982       -0.07480
C         -2.29742        0.36963       -0.14267
C         -1.24155       -0.61013        0.06771
N         -1.69551       -1.59740        0.32452
H         -2.67932       -1.84886        0.17976
H         -1.64069       -1.26098        1.28515
C          0.20529       -0.41928       -0.06452
C          0.86485       -1.72037       -0.16557
N          2.19450       -2.10703       -0.17650
C          3.19920       -1.26044        0.05394
C          3.30069        0.07510        0.30192
C          2.27206        1.00644        0.23358
N          2.86006        1.92514        0.44738
H          3.74669        2.21154        0.86089
H          2.16545        2.57631        0.80991
C          0.90376        0.86342       -0.03344
C          0.25835        2.14737       -0.27930
C         -1.02687        2.46491       -0.63195
C         -2.20611        1.67278       -0.57066
H         -3.10530        2.23434       -0.82325
H         -1.20210        3.50039       -0.91479
H          0.90725        3.01656       -0.31312
H          4.34195        0.36141        0.50958
H          4.13657       -1.83973        0.06879
N          0.88779       -2.82650       -0.25318
H         -0.10332       -2.65105       -0.08260
H          0.92124       -3.64348       -0.86192
