24
Coordinates from ORCA-job ./opt_b97-3c_parallel
N         -1.32422       -2.54825        0.05525
C         -0.91119       -1.52080        0.03723
N         -2.23269       -1.24855        0.37608
C         -2.69613        0.04369        0.30012
C         -2.17534        1.11221       -0.34717
C         -0.97173        1.51401        0.14640
C          0.24260        0.72484        0.10724
C          1.34000        1.55277        0.26386
C          2.71987        1.18605        0.18130
C          3.23636       -0.04424       -0.13219
N          2.62700       -1.25469       -0.38500
C          1.31421       -1.50352       -0.33631
C          0.17918       -0.65689       -0.08146
H          2.02714       -2.32016       -0.53036
H          4.32317       -0.19690       -0.21736
H          3.43122        1.99259        0.34001
H          1.18891        2.61070        0.45940
N         -1.36178        2.54217        0.29396
H         -2.10916        3.20840        0.48961
H         -0.50486        3.09180        0.24746
H         -2.41209        1.24955       -1.40613
H         -3.65989        0.53742        0.49937
H         -1.96122       -3.34340        0.09197
H         -0.42415       -2.89085        0.38920
