22
Coordinates from ORCA-job ./opt_b97-3c_parallel
N         -0.39849       -3.90623        0.38426
C         -0.04255       -2.82353        0.31403
C          0.45853       -1.48155        0.22488
C         -0.46427       -0.44177        0.04863
N         -1.76102       -0.74070       -0.22979
C         -2.64166        0.30082       -0.43460
C         -3.26352        1.50072       -0.58658
C         -2.03970        1.97140       -0.22274
N         -0.71506        2.09803        0.14256
C         -0.01740        0.94325        0.23708
C          1.15268        1.44437        0.70201
C          2.19787        0.98071       -0.02133
N          2.69346       -0.28960       -0.17732
C          1.90738       -1.37963        0.18472
H          2.46987       -2.32676        0.18831
N          3.06758        1.51419       -0.44258
H          2.74552        2.38527       -0.86520
H          4.06719        1.45642       -0.63825
H          1.27062        1.70378        1.75422
H         -2.30703        3.03956       -0.19531
H         -4.15376        1.74370       -0.00957
H         -3.46715       -0.40477       -0.61696
