28
Coordinates from ORCA-job ./opt_b97-3c_parallel
N         -4.55577       -0.60162        1.26477
C         -3.50955       -0.50120        0.81729
C         -2.19595       -0.42146        0.25732
C         -1.78654        0.80394       -0.20097
N         -2.28854        1.04295       -1.42784
H         -3.24687        0.76664       -1.64456
H         -2.14717        1.95650       -1.86083
C         -0.57921        1.36225        0.13294
C         -0.18613        2.70340       -0.18085
N          0.16461        3.75743       -0.44662
C          0.58341        0.70172        0.43880
C          0.77938       -0.55923       -0.06694
N          1.84770       -1.25920       -0.48576
C          3.04242       -0.65109       -0.40749
C          3.52774        0.55391        0.02767
C          2.82074        1.31604        0.86748
C          1.59671        0.91478        1.33664
H          1.40870        0.85958        2.40464
H          3.22680        2.27195        1.19339
H          4.49830        0.90216       -0.32220
N          3.53194       -1.55119       -0.81333
H          3.53901       -2.29335       -1.51208
H          4.49965       -1.42706       -0.51802
N         -0.10393       -1.50690       -0.18304
C         -1.33364       -1.57693        0.23310
N         -1.25839       -2.64827        0.48804
H         -0.87457       -3.54368        0.78810
H         -2.27007       -2.77055        0.44739
