29
Coordinates from ORCA-job ./opt_b97-3c_parallel
N          4.39864        1.74268       -0.18113
C          3.42408        1.15331       -0.11876
C          2.21763        0.36371       -0.02347
C          2.52206       -1.01292        0.27679
N          1.69170       -2.10978        0.24989
C          0.33661       -2.12026        0.00267
C         -0.59570       -1.10966       -0.08565
C         -1.89548       -1.66789       -0.36059
C         -3.00317       -0.98368       -0.73095
C         -3.49566       -0.11263        0.17930
N         -2.82611        1.05788        0.49446
C         -1.46071        1.25383        0.23846
N         -1.85339        2.27383        0.44660
H         -2.33092        3.03865        0.93121
H         -0.97629        2.68799        0.12250
C         -0.40468        0.33793       -0.00145
C          0.93726        0.94852       -0.10683
N          0.94748        2.05443       -0.26827
H          1.61983        2.69152        0.16817
H          1.05503        2.20491       -1.27515
N         -4.56365       -0.14731        0.47040
H         -5.19573       -0.81794        0.02725
H         -5.13953        0.31622        1.17660
H         -3.35334       -0.99423       -1.76353
H         -1.97328       -2.75291       -0.40236
H          0.43548       -3.21802       -0.01683
N          3.32481       -1.75389        0.47186
H          4.19102       -1.25584        0.25264
H          3.62879       -2.57995        0.99182
