27
Coordinates from ORCA-job ./opt_b97-3c_parallel
N         -4.18400       -2.89011        0.25399
C         -3.52947       -1.96650        0.09995
C         -2.68465       -0.81845       -0.04964
C         -3.28680        0.47450       -0.06915
C         -2.63272        1.72458       -0.27213
C         -1.20282        1.95445       -0.27020
N         -1.19366        3.06249       -0.36377
H         -1.91024        3.76159       -0.16955
H         -0.92029        3.20143       -1.33636
C         -0.12893        1.07629       -0.12921
C          1.09296        1.83745        0.02864
N          2.33290        1.50904        0.42054
C          2.86799        0.24243        0.42354
N          3.75601        0.77988        0.80696
H          4.44311        0.13531        0.41178
H          4.04414        0.94379        1.77154
C          2.34265       -0.91272       -0.09944
C          3.25941       -2.00760       -0.24815
N          4.32573       -2.04298       -0.65629
C          0.97228       -1.24564       -0.35448
C         -0.17478       -0.37371       -0.19334
C         -1.36771       -1.19591       -0.20089
H         -1.19751       -2.27037       -0.24106
H          0.79794       -2.28745       -0.61438
H          1.36059        2.90165        0.12329
H         -3.34069        2.55704       -0.34559
H         -4.37038        0.51073        0.00962
