31
Coordinates from ORCA-job ./opt_b97-3c_parallel
N         -0.22260       -3.13498        2.32437
C         -0.57092       -2.28332        1.64800
C         -0.94608       -1.18412        0.80345
C         -2.34108       -0.85840        0.82401
C         -2.97110       -0.02273       -0.14924
C         -4.36687       -0.26115       -0.38939
N         -5.46846       -0.46786       -0.60937
C         -2.31741        1.15519       -0.66948
C         -1.08827        1.67613       -0.29766
C          0.09472        0.92373        0.09961
C          0.06731       -0.52689        0.10594
C          1.14618       -1.26847       -0.36120
C          1.19217       -2.65498       -0.74839
N          1.28042       -3.74638       -1.07213
C          2.43077       -0.89387       -0.70635
N          3.16286        0.17250       -0.34746
C          2.61888        1.26356        0.32762
C          1.23836        1.69939        0.34941
C          1.09070        3.06285        0.78550
N          1.03025        4.14480        1.14234
N          3.61995        1.71266        0.50974
H          4.63894        1.78543        0.52035
H          3.30186        2.55183        1.00215
N          3.45401       -1.10117       -1.10723
H          4.28676       -0.98742       -1.68926
H          3.21747       -2.09208       -1.20902
H         -0.92396        2.73028       -0.52753
N         -2.86546        1.91246       -1.26654
H         -2.81382        2.87989       -1.58359
H         -3.83672        1.63057       -1.40186
H         -2.98650       -1.54720        1.36611
