27
Coordinates from ORCA-job ./opt_b97-3c_parallel
N         -0.58883       -3.24239        1.46543
C         -0.06194       -2.36759        0.95369
C          0.64692       -1.27531        0.34246
C          0.01677       -0.04383        0.07681
C          0.66192        1.18266        0.24276
C          0.09523        2.40792        0.56263
C         -1.21665        2.75650        0.74408
C         -2.36988        2.09414        0.42192
C         -2.40635        0.78701       -0.20098
C         -1.34137       -0.11220       -0.27331
C         -1.82998       -1.22963       -1.05815
N         -2.17244       -2.11306       -1.69749
N         -3.48975        0.78341       -0.46400
H         -4.22045        1.46099       -0.67651
H         -3.84216       -0.12234       -0.77179
H         -3.27888        2.68655        0.58318
H         -1.37203        3.76604        1.11361
H          0.75699        3.24436        0.77084
C          2.08581        1.38516        0.04341
C          2.98244        0.45533       -0.41437
N          3.05480       -0.87221       -0.38556
C          2.03540       -1.60422        0.18041
H          2.40219       -2.63028        0.34312
N          4.03030        0.47196       -0.76539
H          4.13663        1.34669       -1.27864
H          4.88997       -0.05206       -0.93187
H          2.45577        2.40673        0.09594
