28
Coordinates from ORCA-job ./opt_b97-3c_parallel
N          3.10596        3.61264        1.29905
C          2.70469        2.61509        0.91296
C          2.17417        1.35860        0.47633
C          3.06095        0.25029        0.31094
C          2.73181       -1.06493       -0.14843
C          3.82252       -1.95371       -0.40113
N          4.68195       -2.66561       -0.64547
C          1.40504       -1.61045       -0.22986
C          0.17417       -0.99257       -0.11436
C         -0.89169       -1.95250       -0.24143
N         -1.99035       -1.90170        0.53447
C         -2.81382       -0.78926        0.53485
N         -3.32710       -1.55995        1.15038
H         -4.18493       -1.05300        0.92443
H         -3.52862       -2.06276        2.01474
C         -2.66030        0.30329       -0.30345
C         -4.03619        0.69792       -0.48125
N         -5.17114        0.54104       -0.49374
C         -1.38446        0.93392       -0.59740
N         -1.62902        1.92247       -1.03374
H         -2.31812        2.37392       -1.63604
H         -0.71843        2.18926       -1.40835
C         -0.10823        0.42429       -0.12000
C          0.84444        1.48130        0.13634
H          0.43185        2.48831        0.17180
H         -0.68396       -3.03364       -0.20197
H          1.41906       -2.68054       -0.42568
H          4.11485        0.45153        0.49129
