24
Coordinates from ORCA-job ./opt_b97-3c_parallel
N         -1.37560       -3.37727        0.12571
C         -1.29097       -2.24074        0.06079
C         -1.14574       -0.81505        0.00561
C          0.15947       -0.16257       -0.15062
C          0.26142        1.29560       -0.10493
N          1.46246        2.00692       -0.12941
C          2.66281        1.33439       -0.03369
N          3.37832        0.16292        0.08129
C          2.54813       -0.93208       -0.01956
C          1.24089       -0.97166       -0.42396
H          1.06069       -1.69762       -1.21651
N          3.36888       -1.66993        0.07550
H          4.33451       -1.58379        0.40014
H          3.30244       -2.62161       -0.28864
H          3.38109        2.17005       -0.00558
C         -0.70794        2.23978        0.07602
C         -2.02339        1.96377       -0.04944
N         -2.95683        0.95661       -0.02893
C         -2.43757       -0.28157        0.05220
N         -3.53832       -0.44702        0.11036
H         -4.38319       -0.35309       -0.45656
H         -3.75515       -1.17945        0.78783
H         -2.59789        2.90020       -0.13634
H         -0.44787        3.23114        0.45401
