31
Coordinates from ORCA-job ./opt_b97-3c_parallel
N          4.50180        1.79856       -1.30985
C          3.91137        1.08849       -0.63461
C          2.55645        0.73037       -0.29051
C          1.20160        1.04959        0.09973
N          1.43552        2.13235        0.12818
H          0.49575        2.51162        0.01243
H          2.07694        2.90900       -0.03679
C          0.08387        0.21266        0.14075
C         -1.16340        0.83592        0.58940
N         -1.13216        1.73127        1.25191
H         -2.00046        2.03035        1.69622
H         -0.39732        2.31485        1.64965
C         -2.48695        0.54307        0.04048
C         -3.61890        1.39707        0.33556
N         -4.51438        2.05624        0.60164
C         -2.69472       -0.48243       -0.95938
C         -2.07313       -1.71691       -0.98659
C         -0.90639       -2.08507       -0.24962
C          0.13583       -1.22966        0.04200
C          1.29521       -1.98963        0.44348
N          2.63148       -1.69722        0.24323
C          3.15846       -0.50460       -0.21745
H          3.91237       -1.30944       -0.25454
N          1.81501       -2.94129        0.66372
H          0.90407       -3.07672        1.10174
H          2.43384       -3.62705        1.09833
H         -0.71306       -3.15462       -0.25548
H         -2.52149       -2.55989       -1.52193
N         -3.59862       -0.61690       -1.58879
H         -3.87482       -1.03452       -2.47632
H         -4.27934        0.11821       -1.39857
