26
Coordinates from ORCA-job ./opt_b97-3c_parallel
N          4.06329        1.64711       -0.13074
C          3.14907        0.95919       -0.11533
C          1.98972        0.09990       -0.05540
C          2.53381       -1.09928       -0.48174
C          1.91055       -2.37346       -0.42698
C          0.68260       -2.64932        0.09755
C         -0.42516       -1.76062        0.31531
C         -1.55622       -2.47835        0.85386
N         -2.43359       -3.05073        1.31209
C         -0.49160       -0.37538        0.07724
C         -1.79650        0.05740       -0.18828
C         -2.38612        1.30111       -0.26360
N         -3.44938        1.41249       -0.54701
H         -3.86953        2.25416       -0.93520
H         -3.85504        0.62523       -1.04947
C         -1.83918        2.55779        0.13940
C         -0.53544        2.73506        0.49891
C          0.52707        1.87113        0.43921
C          0.59547        0.50514        0.15879
H          1.43297        2.40982        0.68191
H         -0.28269        3.75151        0.78622
H         -2.48258        3.43694        0.15056
H         -2.51098       -0.71730       -0.45600
H          0.46364       -3.70225        0.26051
H          2.54229       -3.21609       -0.68935
H          3.57543       -1.17596       -0.80105
