28
Coordinates from ORCA-job ./opt_b97-3c_parallel
N         -0.32629       -3.31262        1.85798
C          0.00235       -2.36124        1.31657
C          0.44962       -1.15658        0.67600
C          1.88903       -1.14713        0.44179
C          2.63649       -0.12753       -0.25604
C          3.90023       -0.45797       -0.84204
N          4.91249       -0.74641       -1.28722
C          2.21086        1.23928       -0.15057
N          2.65311        2.18287       -0.52349
H          3.43658        1.95543       -1.13364
H          2.31604        3.10184       -0.80470
C          1.28532        1.63638        0.76107
C          0.05899        1.19583        0.38579
N         -0.55066        2.38984        0.39505
C         -1.89355        2.63311        0.21893
C         -2.93838        1.82679       -0.14997
C         -2.86011        0.39636       -0.38496
N         -3.90922        0.26192       -0.74475
H         -4.69665        0.79480       -1.10879
H         -3.95039       -0.65258       -1.19290
C         -1.75672       -0.42122       -0.12914
C         -2.15302       -1.74240       -0.56620
N         -2.46452       -2.77317       -0.95219
C         -0.45114       -0.14526        0.28873
H         -3.87416        2.38313       -0.28263
H         -2.09038        3.70938        0.33647
H          1.54551        1.72221        1.81535
H          2.40864       -2.08713        0.61426
