28
Coordinates from ORCA-job ./opt_b97-3c_parallel
N         -5.39759       -1.28878       -0.05124
C         -4.29120       -1.00581       -0.06018
C         -2.91519       -0.61154       -0.06265
C         -2.10742       -1.59555       -0.56126
C         -0.68293       -1.66678       -0.49603
C          0.28827       -0.72819       -0.14297
C          0.00733        0.70671       -0.04632
N          0.95399        1.71922       -0.21702
C          2.27889        1.62150       -0.28754
C          3.21015        0.66053       -0.02397
C          2.85343       -0.71650        0.24188
C          1.57462       -1.26277        0.06635
C          1.79412       -2.68336        0.25432
N          2.01047       -3.80251        0.19095
N          3.89086       -1.06432        0.47296
H          4.77454       -0.82933        0.92454
H          3.84295       -2.08400        0.48883
H          4.25470        1.00393       -0.01572
N          2.32779        2.70564       -0.49971
H          3.27446        2.92213       -0.81089
H          1.80591        3.57962       -0.57691
C         -1.29045        1.33794        0.22514
C         -1.38036        2.75433        0.47901
N         -1.40093        3.87974        0.67417
C         -2.55734        0.68698        0.38889
H         -3.39063        1.30902        0.71079
H         -0.37133       -2.65724       -0.80899
H         -2.57660       -2.51313       -0.91427
