30
Coordinates from ORCA-job ./opt_b97-3c_parallel
N         -2.05265       -3.33822       -0.90758
C         -1.52525       -2.55204       -0.26609
C         -1.17101       -1.15646       -0.19010
C         -2.46550       -0.62884       -0.05218
N         -2.82387        0.67305        0.31916
C         -1.91562        1.71796        0.26292
C         -0.94103        1.56435       -0.66583
C          0.19146        0.91730       -0.29484
C          1.36320        1.75260       -0.26146
C          2.66905        1.39393       -0.01160
C          3.23545        0.10598        0.26379
C          2.54799       -1.08539        0.31666
C          1.14668       -1.35950        0.13836
C          0.12064       -0.45877       -0.10154
H          0.91267       -2.41665        0.24948
N          3.16823       -1.97363        0.53281
H          3.03338       -2.94107        0.82622
H          4.17719       -1.83017        0.49947
H          4.31467        0.08312        0.42984
N          3.38330        2.23604       -0.04704
H          4.33521        1.93289        0.15700
H          3.47484        3.08475       -0.60410
H          1.15543        2.80205       -0.47627
H         -1.02735        2.01230       -1.65606
N         -2.30760        2.67258        0.65997
H         -3.15596        3.23394        0.75154
H         -1.57343        3.21560        1.11811
N         -3.57724       -0.66103        0.01699
H         -3.49349       -1.44893       -0.63219
H         -4.47486       -0.80618        0.48413
