25
Coordinates from ORCA-job ./opt_b97-3c_parallel
N         -5.18979        0.36661       -0.96245
C         -4.09939        0.36533       -0.62176
C         -2.72793        0.33338       -0.22532
C         -2.04537        1.44342       -0.67007
N         -0.88779        2.00272       -0.29083
C         -0.11689        1.27678        0.59408
C          0.66963        2.37676        0.73098
C          1.94973        2.34817        0.31490
N          2.96312        1.59163       -0.19749
C          2.72397        0.24809       -0.43468
N          3.77444        0.23792       -0.78589
H          4.72768        0.59506       -0.85195
H          3.79574       -0.68734       -1.21674
C          1.53375       -0.56418       -0.21021
C          1.71660       -1.90552       -0.68261
N          1.90516       -2.95371       -1.09575
C          0.20657       -0.07719        0.21318
C         -0.78776       -1.04015        0.66983
C         -0.45509       -2.29312        1.28024
N         -0.16022       -3.27059        1.79282
C         -2.19723       -0.73323        0.58446
H         -2.89846       -1.49055        0.92779
H          2.33800        3.37171        0.43401
H          0.37898        3.14625        1.44904
H         -2.37964        2.29171       -1.28789
