26
Coordinates from ORCA-job ./opt_b97-3c_parallel
N          3.33578       -0.23410       -0.06448
C          2.24145       -0.07712       -0.09670
N          1.78683       -1.32374        0.29289
C          0.40775       -1.41612        0.26955
N          0.68671       -2.41457        0.65358
H         -0.31171       -2.62011        0.69236
H          1.15977       -3.30384        0.81824
C         -0.47918       -0.49142       -0.20775
C         -1.44370       -1.20151       -0.87243
C         -2.81760       -1.26055       -0.43918
C         -3.31801       -0.40584        0.52759
C         -2.68085        0.85489        0.80779
C         -1.69267        1.42445        0.05623
C         -0.46230        0.87595       -0.16213
C          0.68493        1.72008       -0.43857
N          1.99913        1.24102       -0.45590
N          0.91906        2.79207       -0.58637
H          0.01169        3.24526       -0.46266
H          1.49764        3.48792       -1.06176
H         -1.94420        2.35103       -0.45728
H         -3.15260        1.46765        1.57127
H         -4.26769       -0.62182        1.00950
H         -3.42653       -2.06797       -0.83759
H         -1.16725       -1.90912       -1.65172
H          4.15835        0.34641       -0.23250
H          3.70322       -1.10822        0.31594
