32
Coordinates from ORCA-job ./opt_b97-3c_parallel
N         -2.85281       -0.48426       -1.93571
C         -2.85854       -1.13392       -0.99442
C         -1.53215       -1.07273       -0.42546
C         -1.16641       -2.40000       -0.65404
N         -0.17184       -3.07780        0.03529
C          0.86364       -2.49086        0.74929
N          1.20602       -3.45251        1.19330
H          2.14001       -3.28807        1.58131
H          0.97933       -4.39743        1.51562
C          1.45516       -1.21551        0.40469
C          2.81371       -1.07046        0.84218
N          3.88003       -0.95839        1.23429
C          0.66525       -0.05401       -0.03176
C          1.44330        1.07591       -0.54175
C          2.67317        0.96931       -1.27987
N          3.62660        0.89986       -1.90105
C          1.06754        2.40841       -0.60889
N          0.10944        3.11084        0.01824
C         -0.94023        2.51098        0.70773
N         -1.31080        3.48320        1.10354
H         -1.08046        4.42428        1.43535
H         -2.25587        3.32870        1.46788
C         -1.43909        1.15808        0.53628
C         -2.73653        0.95187        1.11692
N         -3.75222        0.79863        1.61333
C         -0.71518        0.02167        0.12442
N          1.35819        3.43405       -0.94386
H          1.31081        4.45602       -1.00060
H          2.17604        3.21075       -1.52053
N         -1.32325       -3.45293       -0.99841
H         -1.32240       -4.47770       -1.01163
H         -2.01157       -3.21094       -1.71720
