26
Coordinates from ORCA-job ./opt_b97-3c_parallel
N         -5.23323       -0.25300        0.94659
C         -4.16370       -0.01633        0.62219
C         -2.80846        0.26873        0.25900
C         -2.31146        1.59517        0.43148
C         -1.07660        2.09597       -0.08022
C          0.11682        1.35369       -0.38113
C          1.16273        2.12196       -0.77561
C          2.15377        2.30290        0.12167
N          3.02013        1.33414        0.58813
C          2.75743       -0.01440        0.34069
C          1.56836       -0.60073       -0.12996
C          2.12141       -1.93106       -0.06293
N          2.29235       -2.79585        0.66684
C          0.27047       -0.08491       -0.29736
C         -0.77339       -0.97049       -0.55863
C         -0.72331       -2.34626       -0.98402
N         -0.38784       -2.60870       -2.04497
C         -2.19907       -0.80807       -0.34399
H         -2.85330       -1.66361       -0.53951
N          3.80116        0.13894        0.70625
H          4.80366        0.31490        0.77647
H          3.64391       -0.74848        1.18748
H          2.31902        3.38181        0.26845
H          1.11634        2.70850       -1.69205
H         -0.98874        3.17954       -0.08697
H         -3.01638        2.33414        0.80369
