27
Coordinates from ORCA-job ./opt_b97-3c_parallel
N          3.66749        1.63015        1.46607
C          2.98087        0.87701        0.94875
C          2.10601       -0.08984        0.33693
C          2.80262       -1.34183        0.25841
N          2.48628       -2.49546       -0.40814
C          1.23686       -2.71732       -0.78379
C          0.02438       -2.12573       -0.57807
C         -0.25043       -0.75905       -0.14572
C         -1.62682       -0.55481        0.04364
C         -2.55964       -1.64156        0.29542
N         -3.06640       -2.46068        0.91087
C         -2.36470        0.62853        0.13184
C         -1.97435        1.93595       -0.12879
C         -0.60908        2.31127       -0.35283
C          0.53659        1.56021       -0.18941
C          0.76849        0.19344       -0.01486
H          1.42238        2.18137       -0.29702
N         -0.49513        3.39447       -0.55511
H          0.41127        3.78804       -0.80129
H         -1.19774        4.05473       -0.88274
H         -2.68255        2.78168       -0.17406
N         -3.44665        0.84310        0.32203
H         -4.05690        1.63998        0.49333
H         -3.87241        0.04799        0.79597
H         -0.80294       -2.74970       -0.89290
H          1.36878       -3.72646       -1.20272
H          3.84574       -1.59079        0.50701
