26
Coordinates from ORCA-job ./opt_b97-3c_parallel
N         -2.37877       -2.31488       -1.35489
C         -2.23647       -1.68122       -0.41275
C         -1.61770       -0.77503       -0.20359
C         -2.50027        0.28679       -0.09048
N         -2.60462        1.58382        0.26063
C         -1.55523        2.37631        0.58610
N         -0.20961        2.06129        0.42473
C          0.10827        0.74009        0.15530
N          1.17908        1.60647       -0.06118
C          2.35017        0.99592       -0.49617
N          2.61106       -0.27906       -0.45909
C          1.98883       -1.24757        0.15533
N          2.88077       -1.34163        0.82017
H          3.88756       -1.50859        0.80326
H          2.48841       -2.11835        1.35550
C          0.64594       -1.54062       -0.03764
C          0.65935       -2.65087       -0.16683
N          0.36150       -3.59602        0.40374
C         -0.29527       -0.56486       -0.02365
N          3.21843        1.62061       -0.77298
H          3.32173        2.59255       -1.06821
H          4.12201        1.18381       -0.96650
H         -2.30664        3.15915        0.78527
N         -3.52172        0.72695       -0.18922
H         -4.45373        1.07015        0.05018
H         -3.65784        0.10966       -0.99096
