23
Coordinates from ORCA-job ./opt_b97-3c_parallel
N         -1.57351       -1.57618       -2.37028
C         -1.51166       -1.02903       -1.36994
C         -1.37504       -0.36719       -0.10007
C         -2.47293        0.39396        0.21687
C         -2.40367        1.72656        0.18087
C         -1.23925        2.34503       -0.17198
N          0.07717        2.17510       -0.37260
C          0.67698        0.97792       -0.20499
N          2.05528        1.06868       -0.40922
C          2.83384       -0.02189       -0.04782
N          2.88031       -1.27850        0.53049
C          1.62961       -1.74105        0.90225
N          0.46863       -1.22902        0.64650
C         -0.04635       -0.13824        0.17042
H          1.73963       -2.74964        1.33519
N          3.89170        0.19925       -0.28298
H          4.60237       -0.53428       -0.26686
H          4.39461        1.04810       -0.54710
H         -1.47357        3.40917       -0.33426
H         -3.27661        2.32841        0.43386
N         -3.59500       -0.26022        0.56307
H         -3.78194       -1.19304        0.19388
H         -4.48967        0.23173        0.58318
