24
Coordinates from ORCA-job ./opt_b97-3c_parallel
N         -0.75823       -3.49676        1.11638
C         -0.94170       -2.44580        0.70492
C         -1.22056       -1.12273        0.23176
C         -2.64290       -0.83147        0.33022
N         -3.30655        0.30386        0.04816
C         -2.75923        1.35219       -0.55825
N         -1.60071        1.48844       -1.09187
C         -0.58235        1.20995       -0.35614
C          0.16205        2.30677        0.18362
C          1.09422        2.15361        1.15571
C          2.13074        1.84366        0.33812
C          2.27653        0.53844       -0.26951
N          3.32710        0.49320       -0.61857
H          4.16735        0.65728       -0.06720
H          3.45629       -0.40056       -1.09073
C          1.22971       -0.47045       -0.12521
C          1.65697       -1.80710       -0.43868
N          2.02970       -2.84941       -0.72477
C         -0.19781       -0.08148       -0.01389
H          2.94287        2.56796        0.25059
H          1.20637        2.89327        1.94458
H         -0.13938        3.31457       -0.09140
H         -3.61359        2.04338       -0.62003
H         -3.52706       -1.40640        0.64360
