22
Coordinates from ORCA-job ./opt_b97-3c_parallel
N         -1.85077       -3.30394       -0.41701
C         -2.03743       -2.29308        0.08343
C         -1.70496       -1.23711        0.07029
C         -2.88892       -0.55201        0.06688
N         -3.47937        0.65125        0.08726
C         -2.78175        1.80528        0.08953
N         -1.39802        1.96668        0.03040
C         -0.61115        0.82708        0.03101
N          0.31490        1.73102       -0.10763
C          1.60029        1.56270       -0.13832
C          2.47740        0.50328       -0.03516
C          3.88677        0.72506       -0.08355
N          5.00783        0.93700       -0.13305
C          1.91282       -0.81293        0.13258
N          0.63409       -1.04311        0.12006
C         -0.56403       -0.54405        0.07747
N          2.01254       -1.90135        0.26954
H          1.71737       -2.79276        0.66731
H          3.02986       -1.93791        0.21422
H          2.00431        2.57854       -0.27152
H         -3.54810        2.59660        0.10952
H         -3.98896       -0.61996        0.07261
