29
Coordinates from ORCA-job ./opt_b97-3c_parallel
N         -1.33506       -2.67502        0.13475
C         -1.02768       -1.60757        0.09640
C         -2.37985       -1.06839        0.08223
C         -2.67060        0.26572        0.02540
N         -1.96025        1.39656        0.03680
C         -0.57556        1.45083        0.09609
N         -0.92747        2.50534        0.10590
H          0.06754        2.51423       -0.12885
H         -1.13133        3.46056        0.40287
C          0.47184        0.42958        0.09546
C          1.69618        1.11187        0.14810
C          3.06241        0.62087        0.10271
C          3.45092       -0.67998       -0.03084
C          2.62998       -1.83751       -0.09724
C          1.26549       -1.95544       -0.03297
C          0.21089       -0.94654        0.05599
H          0.97881       -3.00109       -0.08931
H          3.20052       -2.75746       -0.19325
H          4.51614       -0.88877       -0.08328
H          3.92316        1.30175        0.15047
N          1.94927        2.19419        0.23025
H          2.37801        2.21692        1.15821
H          2.63008        2.62085       -0.40132
N         -3.68883        0.69882       -0.01657
H         -4.25045        1.22388       -0.68864
H         -4.35614        0.13428        0.51150
H         -3.25850       -1.73286        0.09349
H         -1.75573       -3.51987       -0.25378
H         -0.65722       -2.99599        0.82691
