27
Coordinates from ORCA-job ./opt_b97-3c_parallel
N          0.53063       -2.70254        0.06726
C          0.47810       -1.59337        0.00723
C          1.74370       -1.62190       -0.49416
C          2.61242       -0.93412        0.28544
N          2.64620        0.43483        0.41243
C          1.53877        1.19984        0.05375
C          0.18894        0.86036       -0.11289
C         -0.53397        2.01872       -0.36416
C         -1.88015        2.27801       -0.45795
C         -2.95774        1.38339       -0.18004
C         -2.85395        0.06184        0.16719
C         -1.71799       -0.73493        0.24319
C         -0.37318       -0.41184        0.05706
N         -2.16506       -1.72614        0.47384
H         -1.55814       -2.35242        1.00038
H         -3.12025       -1.99807        0.70358
H         -3.85053       -0.36263        0.34686
H         -3.95551        1.80818       -0.24548
H         -2.17518        3.29356       -0.70582
H          0.04421        2.92321       -0.53578
N          2.36402        1.93549        0.12113
H          3.21890        2.48891        0.06922
H          1.73431        2.43708        0.74631
H          3.23611       -1.82601        0.45232
H          1.91484       -1.66022       -1.57373
H          0.72054       -3.68411        0.27148
H         -0.38869       -2.67748       -0.37464
