25
Coordinates from ORCA-job ./opt_b97-3c_parallel
N         -0.58889       -3.36320        1.24354
C         -0.98814       -2.49145        0.61867
C         -0.84032       -1.40597        0.43951
C          0.15397       -0.54960        0.14928
N          1.36192       -0.99077       -0.03252
C          2.61417       -0.76644       -0.28444
C          3.03880        0.31026        0.44139
C          2.27014        1.44101        0.44784
N          0.97685        1.73460        0.20910
C         -0.01626        0.82994       -0.00441
N         -1.12752        1.59346       -0.36154
C         -2.38619        1.03045       -0.31167
N         -3.06386       -0.09173        0.09416
C         -2.16198       -1.05813        0.47276
H         -3.20493       -1.39006        0.62058
N         -3.23756        1.66712       -0.61332
H         -3.21316        2.43731       -1.28338
H         -4.22675        1.53477       -0.39553
N          2.40328        2.52805        0.57732
H          3.41928        2.46593        0.51092
H          2.20957        3.39751        1.07411
H          4.05555        0.33552        0.82849
N          2.59456       -1.26982       -1.26437
H          3.47790       -1.02146       -1.71009
H          2.48554       -2.27490       -1.40173
