31
Coordinates from ORCA-job ./opt_b97-3c_parallel
N         -5.54096       -0.83603        0.12536
C         -4.42653       -0.60276        0.03116
C         -3.01632       -0.29160       -0.05089
C         -2.40852       -1.40884       -0.58054
C         -0.99496       -1.70166       -0.48139
C         -0.99827       -3.10601       -0.82448
N         -0.52912       -3.68449       -1.69050
C          0.07607       -0.87172       -0.15729
C          1.26401       -1.64377        0.20199
C          2.53615       -1.17877        0.46917
N          3.17874       -1.96625        0.91003
H          2.90711       -2.89521        1.23264
H          4.11181       -1.80338        1.28905
C          3.10346        0.02289        0.13136
C          4.46316        0.46692        0.28753
N          5.52639        0.86437        0.41479
C          2.47121        1.06961       -0.48637
N          1.17488        1.37523       -0.60334
C          0.06405        0.58531       -0.24709
C         -1.10249        1.44366       -0.00367
C         -0.88329        2.87541        0.09465
N         -0.66004        3.99285        0.18350
C         -2.42939        0.96782        0.36132
N         -3.18848        1.67342        0.77012
H         -3.05232        2.63006        1.09632
H         -4.17480        1.46319        0.92675
N          2.46538        2.08216       -0.94865
H          2.21517        2.91312       -1.48717
H          3.48417        2.03108       -1.00038
H          1.08893       -2.70296        0.38664
H         -3.07277       -2.21343       -0.92031
