23
Coordinates from ORCA-job ./opt_b97-3c_parallel
N         -1.41691       -1.41976       -2.55202
C         -1.42254       -1.51987       -1.41137
C         -1.15994       -1.08186       -0.42586
C         -0.20196       -0.10620       -0.30100
C         -0.52026        1.32547       -0.21256
N          0.30067        2.31700       -0.63799
C          1.56825        2.30967       -1.09881
C          2.50222        1.28661       -0.73652
C          2.19958        0.32252        0.16643
C          1.18808       -0.49296       -0.22350
C          1.64569       -1.84971       -0.27083
N          1.97215       -2.94327       -0.30170
N          2.91604        0.52231        1.28491
H          3.79897        1.03145        1.23931
H          3.06021       -0.25017        1.93591
H          3.51541        1.38651       -1.11708
H          2.21459        3.04064       -1.60889
N         -1.80038        1.78085        0.11191
C         -2.75440        0.88677        0.55688
N         -3.17588       -0.39675        0.82183
C         -2.26146       -1.31464        0.34730
H         -2.92952       -2.10382        0.72819
H         -3.70069        1.34193        0.89065
