23
Coordinates from ORCA-job ./opt_b97-3c_parallel
N         -1.14820       -3.38218        0.27355
C         -1.19269       -2.24857        0.13216
C         -1.30220       -0.82264       -0.01225
C         -2.66475       -0.38495        0.11756
C         -3.18427        0.94194        0.10835
C         -2.45604        2.15212       -0.06302
C         -1.11740        2.33635       -0.28545
C         -0.03402        1.39240       -0.37450
C          1.16005        1.94628       -0.70668
C          2.00004        1.93972        0.35379
N          2.77731        0.83082        0.59378
C          2.36686       -0.40564        0.09783
C          1.09623       -0.80310       -0.32700
C          1.88932       -1.99698       -0.44040
N          1.93225       -2.92466       -1.11179
C         -0.15422       -0.04534       -0.19532
H          3.40509       -0.19876        0.40482
H          2.60708        2.68408        0.89081
H          1.25350        2.68542       -1.49913
H         -0.82749        3.37370       -0.42997
H         -3.08171        3.03911       -0.03952
H         -4.25682        1.03965        0.24509
H         -3.41405       -1.15823        0.26897
