25
Coordinates from ORCA-job ./opt_b97-3c_parallel
N         -3.79700        0.01896        0.11286
C         -2.71877       -0.22434        0.03890
N         -2.14416        0.90058        0.31221
C         -0.87729        1.13437        0.18028
N         -1.15799        2.20352        0.31474
H         -0.16670        2.45032        0.38059
H         -1.64807        3.07159        0.53740
C          0.22858        0.32361        0.00389
C          1.45509        1.09990       -0.15607
N          2.80575        0.80581       -0.28541
C          3.10223       -0.47368       -0.06028
N          2.49841       -1.53965        0.31973
C          1.33098       -1.89762       -0.08439
C          0.15251       -1.07345       -0.11721
C         -0.95391       -1.90706       -0.27314
C         -2.34200       -1.51504       -0.25391
H         -3.08261       -2.29376       -0.42770
H         -0.78518       -2.97064       -0.42919
H          1.78568       -2.89867       -0.12592
H          4.14828       -0.81756       -0.09081
N          1.82096        2.14050       -0.25038
H          1.64676        1.98251       -1.24291
H          2.67197        2.70505       -0.20473
H         -4.40220       -0.66787       -0.34044
H         -4.39688        0.49124        0.79127
