28
Coordinates from ORCA-job ./opt_b97-3c_parallel
N          4.64444        0.56939        1.88828
C          3.66694        0.59928        1.29707
C          2.46404        0.65129        0.51694
C          2.14494       -0.45812       -0.22751
N          3.06168       -0.50606       -1.22047
H          4.03076       -0.25053       -1.03737
H          3.06328       -1.28606       -1.87646
C          0.94149       -1.09491       -0.40270
C          0.64404       -1.87192       -1.58078
N          0.37499       -2.49064       -2.50199
C         -0.23401       -0.48847       -0.03111
C         -0.27761        0.86058       -0.26116
N         -1.16320        1.89108       -0.52521
C         -2.47886        1.46809       -0.48928
N         -3.01225        0.36796       -0.04187
C         -2.47197       -0.51479        0.75069
C         -1.26993       -1.15874        0.51613
C         -1.37003       -2.23170        0.80183
N         -1.08283       -3.22418        1.29307
N         -3.46328       -0.44982        1.25654
H         -3.41843       -1.39381        1.63550
H         -4.45176       -0.21732        1.16881
N         -3.00799        2.40268       -0.72538
H         -2.48646        3.06920       -1.29105
H         -3.69835        1.96991       -1.33348
N          0.45457        2.02002       -0.06902
C          1.73576        1.89710        0.46574
H          1.97549        2.89326        0.86644
