25
Coordinates from ORCA-job ./opt_b97-3c_parallel
N         -3.63537       -1.06697       -0.25361
C         -2.72992       -0.44600       -0.12915
C         -2.99847        0.96104       -0.09661
C         -2.09273        1.97326        0.07608
C         -0.66919        1.90770        0.20166
C          0.18371        0.74262        0.20045
C          1.58551        1.14649        0.26571
C          2.69494        0.36450       -0.03451
N          2.90807       -0.89946       -0.44650
C          1.83469       -1.74743       -0.31709
C          0.70735       -1.62888        0.41829
C         -0.20673       -0.65332        0.18085
C         -1.55207       -1.14276        0.02231
H         -1.61210       -2.23176        0.02480
H          0.54482       -2.31681        1.24669
H          1.96473       -2.78955       -0.64810
N          3.75951        0.64335       -0.12508
H          4.64975        0.23626        0.16125
H          3.98199        1.54969       -0.53582
H          1.77002        2.20329        0.44032
H         -0.19881        2.88355        0.27289
H         -2.48324        2.98651        0.09035
H         -4.03638        1.27231       -0.20544
H         -3.85253       -2.05885       -0.17351
H         -4.53005       -0.58067       -0.28582
