25
Coordinates from ORCA-job ./opt_b97-3c_parallel
N         -5.35157       -0.07250        0.90620
C         -4.25135       -0.10941        0.60402
C         -2.87894       -0.12586        0.20159
C         -2.12157       -1.33636        0.24592
C         -0.96637       -1.47920       -0.43997
C          0.10398       -0.70255       -0.15132
N          1.14795       -1.59237        0.01829
C          2.39003       -1.06022        0.17991
N          3.25520       -0.00639        0.26181
C          2.71350        1.25777        0.10868
N          3.56826        1.95724        0.20050
H          3.30093        2.94371        0.21697
H          4.58550        1.96574        0.30044
C          1.32417        1.60619       -0.13621
C          0.14339        0.74623       -0.23097
C         -1.01505        1.48889       -0.45258
C         -2.39944        1.08654       -0.27093
H         -3.11544        1.89778       -0.38906
H         -0.91829        2.54884       -0.67280
H          1.14852        2.67545       -0.22966
N          2.94573       -2.01196        0.27484
H          2.53323       -2.94143        0.17538
H          3.94649       -2.18034        0.38227
H         -0.96765       -2.09220       -1.34011
H         -2.62025       -2.21251        0.65095
