27
Coordinates from ORCA-job ./opt_b97-3c_parallel
N          0.45785       -3.53024        1.06215
C          0.61645       -2.46661        0.67698
C          0.77084       -1.12031        0.19698
C         -0.32034       -0.16237        0.25598
C         -0.00594        1.24560        0.05338
N          1.15939        1.76616        0.49952
C          2.26615        1.06721        0.78927
C          2.73370        0.12798       -0.08003
C          1.98367       -0.91432       -0.42076
N          2.37689       -1.76133       -1.39184
H          3.36146       -1.82656       -1.65025
H          1.99156       -2.70513       -1.43681
H          3.69211        0.28822       -0.57385
N          2.72255        2.01748        1.11145
H          2.75264        3.02859        1.23925
H          3.61734        1.66040        1.44425
N         -0.94553        2.18466       -0.36271
C         -2.13263        1.84703       -1.00252
C         -2.83165        0.60451       -0.83553
C         -2.69117       -0.20748        0.25069
C         -1.52440       -0.55585        0.77156
H         -1.52895       -1.16380        1.67545
N         -3.87290       -0.55676        0.78248
H         -4.73199       -0.50080        0.23613
H         -3.94771       -1.36643        1.39821
H         -3.71397        0.49331       -1.46207
H         -2.80186        2.43578       -1.64900
