29
Coordinates from ORCA-job ./opt_b97-3c_parallel
N         -2.42711       -3.74533       -0.31580
C         -2.05527       -2.67956       -0.13749
C         -1.53469       -1.34744        0.06985
C         -0.37898       -1.31965        0.92007
C          0.76645       -0.56623        0.49138
C          1.94084       -1.32674        0.81681
N          3.25634       -1.16479        0.43994
C          3.76988       -0.15079       -0.33373
N          4.77632       -0.60115       -0.37567
H          5.51540       -1.00443        0.19980
H          5.15672       -0.53407       -1.31932
C          3.17993        1.00572       -0.77863
C          1.83568        1.45840       -0.56545
C          0.73579        0.77525       -0.04235
C         -0.46498        1.58503        0.18620
N         -0.30970        2.68153        0.32328
H         -1.11574        3.30247        0.38837
H          0.43215        3.12810        0.85786
C         -1.79738        1.15316        0.11788
C         -2.90364        2.09815        0.20330
N         -3.58184        2.66538        0.92906
C         -2.19903       -0.18231       -0.31175
N         -3.19530       -0.36543       -0.78265
H         -3.62778       -1.23447       -1.09368
H         -3.94275        0.32667       -0.74520
H          1.68751        2.45699       -0.96821
H          3.81391        1.70646       -1.31544
H          2.33228       -2.25742        1.25573
H         -0.14817       -2.27292        1.39340
