24
Coordinates from ORCA-job ./opt_b97-3c_parallel
N         -2.87848       -1.81756        0.07126
C         -2.00989       -1.13928        0.09645
C         -0.67022       -1.59317       -0.14384
C          0.49177       -0.72176       -0.07180
C          1.70673       -1.47856       -0.23737
C          2.88020       -0.91114       -0.59843
C          3.47158       -0.07190        0.27962
C          2.84880        1.14770        0.69356
N          1.59946        1.48562        0.30806
C          0.51339        0.75230       -0.04140
N         -0.57879        1.56385       -0.35169
C         -1.87530        1.11088       -0.26947
C         -2.36674        0.10586        0.49457
H         -2.71442        0.29194        1.51146
N         -2.51206        1.93830       -0.63244
H         -2.50776        2.90497       -0.96149
H         -3.45350        1.59020       -0.82125
H          3.73364        1.62694        1.14120
H          4.50201       -0.23744        0.58257
H          3.42832       -1.27783       -1.46435
H          1.63277       -2.56291       -0.26421
H         -0.52553       -2.65678       -0.32744
H         -3.87620       -1.89718        0.27349
H         -2.52870       -2.77672        0.06288
