28
Coordinates from ORCA-job ./opt_b97-3c_parallel
N          4.38687        1.95305        0.70140
C          3.52521        1.27632        0.36640
C          2.44224        0.41898        0.00666
C          1.35302        1.08977       -0.51541
C          0.02574        0.69098       -0.53308
C         -0.85130        1.68319       -0.93602
C         -2.26243        1.79210       -0.72493
C         -3.00752        1.03834        0.15160
N         -3.99911        1.45473        0.40083
H         -4.06056        2.45691        0.22971
H         -4.49574        1.28601        1.27483
C         -2.70320       -0.24714        0.70742
C         -1.60668       -1.00797        0.34324
N         -1.82091       -2.03233        0.72263
H         -1.21575       -2.50610        1.39204
H         -2.77153       -2.20365        1.05620
C         -0.37672       -0.66313       -0.20819
C          0.45813       -1.69747       -0.60691
N          1.75782       -1.95003       -0.39717
C          2.57913       -0.99498        0.18133
H          3.58415       -1.28003        0.53085
N          0.65964       -2.77053       -0.79638
H         -0.35697       -2.66175       -0.79539
H          0.86994       -3.39958       -1.57215
H         -3.50565       -0.66087        1.32759
H         -2.70671        2.69144       -1.15043
H         -0.43798        2.55802       -1.43313
H          1.52715        2.14296       -0.73430
