23
Coordinates from ORCA-job ./opt_b97-3c_parallel
N         -4.32219       -1.92891        0.54588
C         -3.44471       -1.22262        0.35593
C         -2.31940       -0.37496        0.11185
C         -2.63795        0.87345       -0.40008
C         -1.78378        2.04440       -0.45880
C         -0.46088        2.16571       -0.07124
C          0.43416        1.06146        0.12183
C          1.74116        1.54537        0.51706
N          2.89224        0.75656        0.54832
C          2.81577       -0.53779        0.07043
N          2.04187       -1.41979       -0.47681
C          0.82795       -1.14906       -0.84237
C          0.10694       -0.23027       -0.13569
C         -0.99206       -0.84513        0.36311
H         -0.91085       -1.82943        0.81982
H          0.71584       -2.17704       -1.22306
N          3.86718       -0.84365        0.19692
H          4.64691       -0.47546        0.74056
H          4.26607       -1.52515       -0.44752
H          2.40465        2.37600        0.80262
H         -0.03428        3.16270        0.00994
H         -2.29394        2.96212       -0.73821
H         -3.67702        1.06688       -0.65727
