27
Coordinates from ORCA-job ./opt_b97-3c_parallel
N         -5.38991       -1.15375        0.07123
C         -4.27483       -0.91487        0.03811
C         -2.87257       -0.64508        0.02387
C         -2.19656       -1.51933       -0.78350
N         -0.91656       -1.89390       -0.85300
C          0.06027       -1.22606       -0.13746
C          1.11241       -2.02994       -0.47760
C          2.09168       -1.82325        0.44183
N          3.00268       -0.79969        0.26555
C          2.63929        0.36549       -0.41254
C          1.30230        0.94040       -0.50027
C          1.24362        2.26624       -1.04648
N          1.25138        3.31291       -1.50115
C          0.08396        0.21812       -0.11161
C         -0.99060        0.97486        0.53027
C         -0.75209        2.24328        1.15258
N         -0.51817        3.23665        1.66512
C         -2.30293        0.43095        0.77659
H         -2.99430        1.02620        1.36964
N          3.67620        0.72238       -0.58355
H          4.69461        0.68456       -0.51999
H          3.47894        1.61859       -1.03597
N          2.67642       -2.53660        1.05449
H          3.58064       -2.69695        1.50197
H          2.10291       -3.33808        1.32506
H          1.01005       -3.02916       -0.91727
H         -2.58059       -2.32428       -1.43033
