21
Coordinates from ORCA-job ./opt_b97-3c_parallel
N         -5.23974       -0.51578        0.14804
C         -4.11128       -0.34241        0.14668
C         -2.69622       -0.14720        0.10779
C         -2.21317        1.17474        0.17020
C         -0.92095        0.75290        0.06758
C         -0.66748       -0.52597       -0.00086
C         -1.77132       -1.27291        0.01097
H         -1.96231       -2.34052       -0.03239
C          0.76566       -0.40351       -0.03870
N          1.66736       -1.33142       -0.09379
C          2.83722       -0.74954       -0.05099
N          3.45209       -1.67069       -0.02420
H          3.30884       -2.68066       -0.00425
H          4.46329       -1.53863       -0.00810
C          3.40713        0.50436       -0.01537
C          2.64547        1.64103        0.06576
N          1.32178        2.05377        0.10869
C          0.48457        0.95989        0.04074
H          3.13853        2.62442        0.11503
H          4.49012        0.61581       -0.05622
H         -2.60367        1.94921       -0.48640
