24
Coordinates from ORCA-job ./opt_b97-3c_parallel
N          4.11523        2.48191        0.50735
C          3.30471        1.69160        0.36210
C          2.28051        0.71609        0.14068
C          1.09535        1.26327       -0.33286
C          0.02276        0.50874       -0.73476
C         -1.32576        0.86666       -1.08542
C         -1.66276       -0.52016       -0.97322
C         -2.71209       -0.84675       -0.16675
C         -2.99517        0.44937        0.22396
N         -2.16752        1.48834       -0.20095
N         -3.78641        0.88813        0.85913
H         -4.00230        1.88252        0.93714
H         -4.65723        0.39748        1.06127
H         -3.49228       -1.52066       -0.51389
C         -0.34668       -0.78336       -0.67627
C          0.35318       -1.85361       -0.04614
N         -0.21374       -2.79456        0.07614
H          0.57224       -3.44132        0.13437
H         -1.03500       -3.37746       -0.07659
C          1.66892       -1.75355        0.30781
C          2.53066       -0.69075        0.39062
H          3.54216       -0.90574        0.72369
H          2.15228       -2.69857        0.55790
H          1.01865        2.34352       -0.43686
