27
Coordinates from ORCA-job ./opt_b97-3c_parallel
N          3.74354        2.06322        0.33572
C          3.07714        1.14524        0.19631
C          2.21062        0.02415        0.01606
C          1.37984       -0.12419       -1.14438
C          0.92184       -1.47703       -0.97604
C          1.53685       -2.07798        0.07608
C          2.31104       -1.17466        0.66624
H          2.93313       -1.36071        1.53850
H          1.41971       -3.11602        0.37696
C         -0.42840       -1.00172       -1.01019
C         -1.52598       -1.42583       -0.20922
C         -2.66124       -0.68558       -0.28524
C         -2.73624        0.56062        0.26128
C         -1.75353        1.61931        0.23944
C         -0.44564        1.50262       -0.38599
C          0.01422        0.33861       -1.11696
N          0.14284        2.42967       -0.27113
H         -0.22326        3.32045        0.05884
H          1.15751        2.51795       -0.28287
H         -2.00988        2.55106        0.74349
N         -3.69991        0.74742        0.76676
H         -3.97447        1.66764        0.42844
H         -4.53671        0.16758        0.75839
H         -3.42357       -0.98800       -1.00424
N         -1.71649       -2.40010        0.27223
H         -2.46846       -2.95078        0.68152
H         -0.95533       -3.04159        0.06018
