27
Coordinates from ORCA-job ./opt_b97-3c_parallel
N          3.65292        2.55223        0.08276
C          3.02880        1.59549        0.04262
C          2.21653        0.42144       -0.01621
C          0.93094        0.05288       -0.03173
C          0.83600       -1.30874       -0.10824
C          1.93446       -2.10208       -0.14113
C          2.75122       -0.95123       -0.08730
N          3.79693       -1.31362       -0.12125
H          4.34625       -2.07835        0.26541
H          4.35476       -0.46733       -0.02111
H          2.04046       -2.91692        0.57410
C         -0.59023       -1.10095       -0.08044
C         -1.73386       -1.93051       -0.09177
C         -2.98074       -1.39519       -0.02283
C         -3.42040       -0.09115        0.01566
C         -2.73316        1.19512        0.07319
C         -1.29350        1.37975        0.07063
C         -0.41776        0.25063       -0.00959
N         -0.85125        2.38939        0.11827
H         -1.30664        3.29913        0.08651
H          0.13984        2.54825       -0.05341
H         -3.33576        2.10205        0.12038
N         -4.51570        0.05967        0.01961
H         -4.93019        0.93961       -0.28101
H         -5.27454       -0.61592        0.08378
H         -3.75804       -2.15961        0.01470
H         -1.60077       -3.00626       -0.14404
