26
Coordinates from ORCA-job ./opt_b97-3c_parallel
N         -4.06846       -2.59392        0.05659
C         -3.24282       -1.80401        0.05649
C         -2.17377       -0.84256        0.04523
C         -2.51947        0.52332       -0.00060
N         -3.55717        0.91923       -0.01525
H         -4.26502        0.19274       -0.11771
H         -4.06467        1.78313        0.17102
C         -1.72837        1.76657       -0.05984
C         -0.34866        1.88854       -0.06872
C          0.48246        0.74425        0.02260
C          1.89842        0.50212       -0.01967
C          1.64871       -0.79408        0.01896
N          2.78199       -1.52284       -0.07727
C          3.55395       -0.39849       -0.18321
C          3.16075        0.94790       -0.24030
H          3.60874        1.70571        0.39812
N          4.59668       -0.77169       -0.25176
H          4.91282       -1.74134       -0.22604
H          5.44367       -0.20383       -0.23426
C          0.23769       -0.59543        0.08067
C         -0.84885       -1.40926        0.07363
H         -0.74439       -2.49057        0.08518
N          0.20227        2.84437       -0.11712
H          1.08616        3.23607        0.19820
H         -0.48075        3.59929       -0.04299
H         -2.26266        2.72182       -0.10964
