22
Coordinates from ORCA-job ./opt_b97-3c_parallel
N          4.06965        1.74305        0.02262
C          3.25713        0.93952       -0.00467
C          2.21502       -0.03483       -0.03343
C          0.88446       -0.15522       -0.01581
C          0.53133       -1.47834       -0.08453
C          1.46251       -2.45665       -0.16709
C          2.47823       -1.48013       -0.12525
H          3.51968       -1.78379       -0.16825
H          1.46010       -3.28767        0.53392
C         -0.83602       -1.01419       -0.05246
C         -2.14972       -1.59710       -0.10321
N         -2.95965       -0.82869       -0.06469
C         -3.21789        0.25730       -0.01011
C         -2.51882        1.44081        0.04753
C         -1.14592        1.50919        0.06307
C         -0.40365        0.28420        0.01777
N         -0.56729        2.44765        0.09808
H          0.44774        2.41808        0.02314
H         -0.84200        3.42419        0.01070
H         -3.09013        2.36742        0.05802
H         -4.30212        0.44485        0.00208
H         -2.27149       -2.68798       -0.17448
