22
Coordinates from ORCA-job ./opt_b97-3c_parallel
N         -4.11561        0.02827        0.10933
C         -3.01957       -0.10333        0.06547
N         -2.34831        1.16229        0.03604
C         -1.05942        0.71634       -0.01303
C         -0.92884       -0.57872       -0.00348
C         -2.09087       -1.25010        0.04463
H         -2.31539       -2.31165        0.07569
C          0.49669       -0.47050       -0.02785
C          1.62678       -1.34717       -0.00940
N          1.34378       -2.41373        0.00642
H          2.23918       -2.90107        0.02664
H          0.64280       -3.11467       -0.22348
C          2.90251       -0.85777       -0.01202
C          3.06588        0.50085       -0.00902
N          2.62088        1.81665       -0.00976
C          1.24419        2.03941       -0.02003
C          0.35698        0.91028       -0.03417
H          1.16717        3.13733       -0.01022
H          4.12386        0.80449        0.00430
H          3.76526       -1.51802        0.05998
H         -4.61123        0.91959        0.11442
H         -4.83141       -0.69404        0.18716
