22
Coordinates from ORCA-job ./opt_b97-3c_parallel
N         -0.61521       -2.77591        0.26264
C         -0.93833       -1.48358        0.10677
C          0.07443       -0.59226        0.03894
C          1.50429       -0.54356        0.06968
C          1.53164        0.89899       -0.01998
N          2.62265        0.73935        0.00979
C          3.10703       -0.24855        0.10662
C          2.49645       -1.46659        0.18357
H          2.65358       -2.21853       -0.58585
H          4.19739       -0.15614        0.23280
C          0.09777        0.79581       -0.04391
C         -0.93000        1.69512       -0.08970
N         -2.25968        1.47375       -0.07639
C         -2.84584        0.19840       -0.00026
C         -2.25777       -1.12758        0.08607
H         -2.99731       -1.92234        0.13810
H         -3.94347        0.11531        0.00575
N         -0.91665        2.79760       -0.13797
H          0.03538        3.12601       -0.29977
H         -1.44935        3.61098        0.16783
H         -1.31299       -3.50805        0.13535
H          0.27832       -3.13404       -0.07374
