20
Coordinates from ORCA-job ./opt_b97-3c_parallel
C         -2.99451        0.01290        0.00215
C         -2.47554        1.28116        0.00333
C         -1.16447        1.66254        0.00636
C         -0.18420        0.72487       -0.00443
C          1.24934        0.67054       -0.00682
C          1.26396       -0.68015       -0.00717
C          2.52554       -1.14506       -0.00012
C          3.24387        0.00584        0.00308
C          2.50827        1.14651        0.00087
H          2.84737        2.17935        0.00104
H          4.33113        0.01394        0.00627
H          2.87631       -2.17388       -0.00029
C         -0.15895       -0.72134       -0.00458
C         -1.12346       -1.69509        0.00209
C         -2.49864       -1.26651        0.00358
H         -3.22780       -2.07075        0.00519
H         -0.87284       -2.75098        0.00274
H         -0.90466        2.71816        0.00209
H         -3.19979        2.08991        0.00154
H         -4.08210        0.02283        0.00104
