24
Coordinates from ORCA-job ./opt_b97-3c_parallel
N          3.29104        0.11237        0.15229
C          2.18607        0.06190        0.07873
N          1.96658       -1.28366       -0.11437
C          0.64073       -1.67444       -0.22535
C         -0.43094       -0.78539       -0.14540
C         -1.77839       -1.16816       -0.26711
C         -1.58380        0.00483       -0.20993
C         -2.26936        0.91650       -0.43696
C         -3.24593        0.35408        0.30661
C         -2.91191       -0.89336        0.44115
H         -3.49728       -1.63393        0.98539
H         -4.12170        0.84707        0.72750
H         -2.50667        1.65089       -1.20655
C         -0.60241        0.61975       -0.04895
C          0.44866        1.61246        0.15702
N          1.77662        1.36969        0.22770
N          0.29397        2.70640        0.26079
H          0.81217        3.55956        0.48988
H         -0.66927        3.03158        0.14010
N          0.68652       -2.77803       -0.34426
H         -0.22677       -3.17112       -0.58849
H          1.28080       -3.60255       -0.21813
H          3.87344        0.95210        0.18889
H          3.96399       -0.65677        0.19132
