21
Coordinates from ORCA-job ./opt_b97-3c_parallel
N          3.62826        1.90662       -0.55748
C          2.86713        1.08843       -0.31943
C          1.93217        0.06245        0.01643
C          1.06245        0.17418        1.13156
C          0.44951       -1.11742        1.11635
N          0.97702       -1.90555        0.10488
C          1.92582       -1.20035       -0.50586
H          2.48062       -1.63479       -1.35068
C         -0.83323       -0.50101        0.92980
C         -1.93705       -0.99164        0.15690
C         -2.95136       -0.06382       -0.27372
C         -2.79896        1.30741       -0.35422
N         -1.79652        2.20634       -0.32368
C         -0.51182        1.86618        0.06061
C         -0.23034        0.77162        0.93589
H          0.24945        2.65230       -0.05405
H         -3.66538        1.88191       -0.71455
H         -3.89523       -0.49247       -0.60217
N         -2.17053       -2.06648        0.05920
H         -1.22800       -2.44404       -0.03428
H         -2.81376       -2.80321       -0.22338
