25
Coordinates from ORCA-job ./opt_b97-3c_parallel
N          2.69269        3.56905       -0.07524
C          1.94152        2.71280       -0.17476
C          1.35036        1.40011       -0.07098
C         -0.00027        1.71906       -0.13286
C         -0.99015        0.70811       -0.05796
C         -2.40750        0.74035       -0.10618
C         -2.41793       -0.69565        0.03377
N         -3.50953       -0.51194       -0.01621
C         -3.99703        0.47155       -0.13935
C         -3.37666        1.68111       -0.25928
H         -3.52444        2.45967        0.48448
H         -5.05176        0.16103       -0.20355
C         -1.02217       -0.62837        0.07011
C         -0.00658       -1.54886        0.17373
N         -0.50072       -2.54212        0.25253
H          0.08606       -3.31032       -0.06956
H         -1.46738       -2.84172        0.13630
C          1.35349       -1.24841        0.16391
C          2.23804       -2.38927        0.26673
N          2.85659       -3.20353       -0.24443
C          1.97723        0.07779        0.05757
N          3.07970        0.21411        0.06191
H          3.65289       -0.61062       -0.10788
H          3.70353        1.01902        0.03508
H         -0.38996        2.73240       -0.23682
