28
Coordinates from ORCA-job ./opt_b97-3c_parallel
N          5.12950        0.97587       -0.94958
C          4.09212        0.61932       -0.63123
C          2.81229        0.13291       -0.21351
C          1.73832        0.97971        0.25486
C          0.57051        0.33309        0.78057
C         -0.71437        0.83928        1.20030
C         -1.14159       -0.52782        1.22243
C         -2.25669       -0.59388        0.33223
C         -2.64079       -1.83875       -0.25640
N         -2.88105       -2.86129       -0.70550
C         -2.65407        0.62521       -0.16104
C         -1.59636        1.41511        0.22780
C         -1.36552        2.71439       -0.32261
N         -1.14174        3.74719       -0.75636
N         -3.94404        0.96382       -0.32095
H         -4.61578        0.29119       -0.68855
H         -4.19356        1.88399       -0.68292
C          0.10815       -0.93388        0.81998
C          0.59208       -2.16092        0.26113
N          1.84788       -2.21067       -0.21566
C          2.77492       -1.24179       -0.36783
H          3.56695       -1.90961       -0.74225
N          0.33491       -3.21746        0.06530
H          0.74013       -4.11471       -0.20117
H         -0.67672       -3.34530       -0.00590
N          1.74706        2.08051        0.33489
H          2.66075        2.49745        0.15737
H          1.07615        2.84843        0.30491
