26
Coordinates from ORCA-job ./opt_b97-3c_parallel
N         -4.22062       -1.71514       -1.13601
C         -3.30397       -1.13479       -0.77851
C         -2.18177       -0.36798       -0.32127
C         -2.31934        1.07244       -0.38844
N         -1.37938        2.03908       -0.27591
C         -0.12098        2.00552        0.19240
C          0.33164        0.87559        0.93304
C          1.67173        0.47723        1.22284
C          1.32155       -0.84707        1.15386
C          2.22877       -1.47896        0.35443
C          3.08383       -0.59029       -0.15395
C          2.73954        0.65249        0.29535
H          2.80033        1.54460       -0.31885
N          4.10931       -0.89195       -0.96212
H          4.43783       -1.85426       -1.03180
H          4.92943       -0.28793       -0.99646
H          2.26079       -2.55258        0.17869
C         -0.03594       -0.42494        0.87639
C         -1.07293       -1.07894        0.12567
N         -0.87564       -2.16929        0.15487
H         -1.67615       -2.79271        0.04699
H         -0.05142       -2.76853        0.18241
N          0.21095        3.02916       -0.05623
H         -0.15204        3.98007       -0.11276
H          1.22314        3.11755        0.02582
H         -3.24652        1.51543       -0.78414
