24
Coordinates from ORCA-job ./opt_b97-3c_parallel
N         -3.92141       -1.67355        0.59732
C         -2.92810       -1.16697        0.35249
C         -1.71127       -0.47079        0.04807
C         -0.47838       -1.15837       -0.27286
C          0.61976       -0.37609       -0.76574
C          2.00850       -0.71175       -0.94224
C          2.27821        0.70053       -0.88487
C          3.22225        0.88370        0.07597
C          3.53587       -0.32607        0.54153
C          2.83200       -1.30122       -0.03485
H          2.92124       -2.36755        0.16229
H          4.29240       -0.50092        1.30411
H          3.67285        1.82768        0.37370
C          0.93810        0.93155       -0.70057
C          0.25702        2.05782       -0.14997
N         -1.06212        1.97150        0.10658
C         -1.88740        0.90430        0.13929
N         -2.60791        1.72397        0.34147
H         -3.00381        2.65595        0.21729
H         -3.40802        1.10359        0.48119
H          0.85670        2.97853       -0.08109
N         -0.31165       -2.25072       -0.29402
H          0.62216       -2.65167       -0.21171
H         -0.96870       -3.01412       -0.13540
