21
Coordinates from ORCA-job ./opt_b97-3c_parallel
N          3.45387        1.46455        0.03081
C          2.51356        0.87763        0.02767
N          3.20504       -0.32766        0.03368
C          2.38436       -1.44806        0.03627
N          1.10923       -1.98725        0.04208
C          0.15750       -0.99196        0.06733
C         -1.26171       -0.90826        0.02851
C         -1.22081        0.42225        0.01678
C         -2.52221        0.96997       -0.05505
N         -3.25494       -0.20369       -0.07565
C         -2.57558       -1.40844       -0.03367
H         -2.98079       -2.43207       -0.05785
N         -3.22562        1.82040       -0.11143
H         -3.13086        2.81891       -0.30215
H         -4.22761        1.66835        0.01727
C          0.21983        0.47089        0.05589
C          1.23618        1.38147        0.02057
H          1.03550        2.44545       -0.09456
H          2.95373       -2.39192        0.03017
H          3.46558        2.48214        0.11107
H          4.44022        1.20176       -0.02771
