21
Coordinates from ORCA-job ./opt_b97-3c_parallel
N         -4.93767       -0.32207       -0.00014
C         -3.79573       -0.36422       -0.00008
C         -2.36679       -0.45805        0.00016
C         -1.74104       -1.77111        0.00089
C         -0.42131       -2.11593        0.00385
C          0.55491       -1.18970       -0.00574
C          1.98946       -1.09788       -0.00439
C          1.98866        0.20399       -0.00602
C          3.28119        0.73916       -0.00087
N          3.34717       -0.43625       -0.00022
C          3.29121       -1.61263        0.00311
H          3.79361       -2.59104        0.01034
H          3.74769        1.73555        0.00313
C          0.55977        0.25379       -0.00680
C         -0.42269        1.20050       -0.00194
C         -0.04036        2.57756       -0.00072
N          0.18264        3.69839       -0.00106
C         -1.82197        0.83235        0.00033
H         -2.50395        1.68112        0.00176
H         -0.14913       -3.16847        0.00526
H         -2.45156       -2.59280        0.00046
