23
Coordinates from ORCA-job ./opt_b97-3c_parallel
N         -5.50310       -0.54580       -0.17497
C         -4.36199       -0.48715       -0.15592
C         -2.93758       -0.42031       -0.09181
C         -2.22450       -1.63685       -0.11997
C         -1.02169       -1.00147       -0.03172
C         -1.02038        0.31242        0.01559
C         -2.23397        0.85747       -0.01150
H         -2.60910        1.87600        0.00042
C          0.39965        0.39234        0.04574
C          1.37289        1.43125        0.07535
C          0.90922        2.78177        0.12197
N          1.27695        3.84875       -0.05368
C          2.76483        1.03656        0.06366
N          3.27063       -0.22456        0.01503
C          2.74004       -1.46975       -0.04146
C          1.44565       -1.94808       -0.06972
C          0.41528       -0.97646       -0.01353
H          1.18427       -3.00140       -0.12396
N          3.68645       -2.03803       -0.06294
H          3.58562       -3.05258       -0.04468
H          4.69047       -1.85935       -0.06048
H          3.45221        1.89628        0.09554
H         -2.47952       -2.44893        0.55757
