23
Coordinates from ORCA-job ./opt_b97-3c_parallel
N         -1.87704       -3.34139        0.05398
C         -1.85650       -2.20083        0.00369
C         -1.76792       -0.77781       -0.06033
C         -0.59540       -0.08076       -0.22613
C          0.79235       -0.39030       -0.22758
C          1.12557        0.84596       -0.20368
C          2.51421        1.03356       -0.02024
N          2.98157       -0.27615        0.02705
C          1.90637       -1.21494       -0.07415
N          2.11979       -2.28839        0.04423
H          1.33635       -2.93840       -0.01746
H          2.95788       -2.85743        0.15528
N          3.25980        1.83383        0.12489
H          3.10140        2.83075       -0.01899
H          4.27020        1.71300        0.19067
C         -0.24265        1.27871       -0.22467
C         -1.01005        2.37394        0.05823
C         -2.35321        2.08726        0.11025
N         -3.02652        1.19859        0.08694
C         -2.91679        0.08883        0.07101
H         -3.92910       -0.32180        0.20754
H         -3.05061        2.93974        0.10503
H         -0.66667        3.37839       -0.18120
