26
Coordinates from ORCA-job ./opt_b97-3c_parallel
N         -0.18969       -4.16702        0.00045
C          0.12387       -3.06814       -0.00137
C          0.57415       -1.70434       -0.00374
C         -0.39839       -0.73393       -0.00765
C         -1.76001       -0.61284       -0.00530
C         -1.81389        0.69537       -0.00713
C         -3.09494        1.13430       -0.00226
C         -3.85238        0.01328        0.00027
C         -3.06975       -1.13250       -0.00191
H         -3.36131       -2.17807        0.00234
H         -4.94089        0.00868        0.00332
H         -3.44099        2.16539       -0.00186
C         -0.37518        0.71815       -0.00726
C          0.59951        1.68573       -0.00356
C          0.16346        3.05232       -0.00151
N         -0.13752        4.15729        0.00102
C          1.98858        1.27020       -0.00082
C          2.48212       -0.01852       -0.00286
C          1.96906       -1.30188       -0.00220
N          2.74254       -2.10063        0.00013
H          3.75940       -2.08983        0.00059
H          2.45777       -3.07873        0.00052
H          3.58072       -0.02579       -0.00196
N          2.76875        2.06207        0.00296
H          3.78680        2.04690        0.00075
H          2.49311        3.04308        0.00072
