24
Coordinates from ORCA-job ./opt_b97-3c_parallel
N          6.03351        0.15826        0.08126
C          4.89156        0.20630        0.10716
C          3.46410        0.25220        0.10012
C          2.66248       -0.96452        0.03309
C          1.45161       -0.29548        0.03714
C          1.58070        1.00913        0.09666
C          2.84629        1.51508        0.15744
H          3.15701        2.32712       -0.49549
C          0.14127        1.09206        0.06440
N         -0.69882        2.11337        0.08802
C         -2.01646        1.85603        0.05142
C         -2.76307        0.68174       -0.00280
C         -4.12646        1.12693       -0.00654
N         -5.22371        1.44999       -0.00374
C         -2.32922       -0.72049       -0.04426
C         -1.00916       -1.16624       -0.04409
C         -0.43405       -2.48279       -0.08136
N         -0.44023       -3.62293        0.00197
C          0.02963       -0.27490        0.00651
N         -3.10507       -1.51214       -0.07820
H         -2.99503       -2.52264       -0.00406
H         -4.10256       -1.31783       -0.00500
H         -2.21566        2.93820        0.08582
H          2.92232       -2.01705       -0.01829
