22
Coordinates from ORCA-job ./opt_b97-3c_parallel
N         -5.52389       -0.12134       -0.15618
C         -4.38255       -0.08599       -0.14848
C         -2.95627       -0.03415       -0.09799
C         -2.24314       -1.24899       -0.13599
C         -1.02894       -0.62973       -0.05266
C         -1.03269        0.67331       -0.00113
C         -2.24022        1.23422       -0.01764
H         -2.60515        2.25670        0.00669
C          0.37603        0.72521        0.02544
N          1.25547        1.73496        0.05161
C          2.52547        1.16554        0.02761
N          3.22378       -0.04477       -0.01520
C          2.41880       -1.18766       -0.06221
N          1.21431       -1.69292       -0.09205
C          0.42130       -0.66843       -0.03746
N          3.14982       -2.01862       -0.07742
H          2.81896       -2.98536       -0.06621
H          4.16872       -2.09030       -0.08741
N          3.22839        2.01843        0.05220
H          2.89936        2.98560        0.05238
H          4.24744        2.08535        0.05736
H         -2.50386       -2.07220        0.52655
