23
Coordinates from ORCA-job ./opt_b97-3c_parallel
N         -1.59508       -3.33320        0.00090
C         -1.72818       -2.19873        0.00082
C         -1.80704       -0.77269        0.00077
C         -0.60731       -0.09446       -0.00054
C          0.72544       -0.46164       -0.00013
C          1.12563        0.81398        0.00050
C          2.52783        0.96321        0.00130
N          2.92358       -0.41526        0.00034
C          1.82531       -1.25301       -0.00095
N          2.02448       -2.34121       -0.00083
H          2.90270       -2.86315       -0.00368
H          1.28931       -3.05231       -0.00138
N          3.23292        1.81521        0.00253
H          4.25335        1.85092        0.00700
H          2.92670        2.79031        0.00379
C         -0.22392        1.24977        0.00088
N         -0.86383        2.46415        0.00212
C         -2.22939        2.27224        0.00182
C         -3.19747        1.31108        0.00085
C         -3.05949       -0.05071        0.00149
H         -3.95568       -0.66457        0.00254
H         -4.22268        1.67661        0.00036
H         -2.67118        3.28091        0.00279
