27
Coordinates from ORCA-job ./opt_b97-3c_parallel
N          0.75967        3.48203       -0.01074
C          0.14523        2.51970       -0.04138
C         -0.61069        1.29968       -0.04342
C          0.12740        0.14649       -0.05806
C          1.50430       -0.20854       -0.04097
C          1.25903       -1.53499       -0.00669
C          2.40511       -2.23057        0.06013
C          3.34650       -1.25221        0.05446
C          2.83788        0.05298       -0.00216
N          3.47575        0.95170        0.01937
H          4.46473        1.05629        0.23996
H          3.07181        1.88684        0.02765
H          4.41310       -1.46733        0.09797
H          2.54857       -3.30609        0.10645
C         -0.15701       -1.26679       -0.01876
C         -1.30536       -2.01412        0.03439
C         -2.57311       -1.31774        0.01877
N         -3.42268       -2.02738        0.03169
H         -3.43305       -3.03751       -0.08936
H         -4.38359       -1.71199       -0.09584
C         -2.80644        0.03975       -0.01603
C         -2.05547        1.19809       -0.01355
N         -2.63639        2.14286        0.01205
H         -3.62153        2.34582        0.16470
H         -2.14049        3.03141        0.06317
H         -3.88294        0.24700       -0.03030
H         -1.27470       -3.10103        0.07590
