27
Coordinates from ORCA-job ./opt_b97-3c_parallel
N         -5.08826       -1.48342       -0.02114
C         -3.99366       -1.15578       -0.00934
C         -2.63019       -0.70688        0.00059
C         -2.26487        0.64334        0.01720
N         -3.00375        1.47122        0.02133
H         -4.00207        1.27513       -0.03236
H         -2.89915        2.48409       -0.01623
C         -0.88784        1.13650        0.02920
C         -0.36318        2.47484        0.04264
N         -0.21814        3.60598       -0.03775
C          0.17947        0.25493        0.03089
C          1.58703        0.35902        0.01533
C          1.72217       -0.96386        0.00213
C          3.01842       -1.32260       -0.05040
C          3.62944       -0.10757       -0.05397
C          2.77709        1.00235       -0.01450
N          3.03912        2.07235       -0.03126
H          2.38792        2.85613       -0.04229
H          3.96984        2.45890       -0.17710
H          4.71210       -0.00361       -0.09272
N          3.65880       -2.50047       -0.09227
H          4.63102       -2.56689        0.20226
H          3.18081       -3.35293        0.19370
C          0.29221       -1.21517        0.00669
N         -0.52880       -1.95289       -0.01335
C         -1.60555       -1.71213       -0.01129
H         -1.87782       -2.77884       -0.02564
