25
Coordinates from ORCA-job ./opt_b97-3c_parallel
N         -3.16652       -1.97448        0.02563
C         -2.19349       -1.05588        0.13118
C         -2.50949        0.23294        0.43441
C         -1.71858        1.40086        0.11887
N         -0.50650        1.43100       -0.57219
C          0.11167        0.32522       -1.15462
C          1.53920        0.13583       -1.21483
C          1.36073       -1.24884       -0.90918
C          2.12392       -1.55025        0.16900
C          2.75460       -0.43598        0.53716
C          2.39621        0.63182       -0.25412
N          2.56439        1.64193        0.16000
H          2.72394        2.49731        0.69080
H          3.47183        1.37352       -0.22074
H          3.46166       -0.38846        1.36500
H          2.23649       -2.53252        0.62225
C          0.01480       -0.99427       -0.83164
C         -0.97359       -1.62531       -0.02711
H         -0.74664       -2.59250        0.41607
N         -1.74697        2.49210        0.27836
H         -2.62463        2.99688        0.16080
H         -1.06948        3.17023        0.62583
H         -3.42085        0.43074        0.99235
H         -4.12894       -1.71030       -0.18144
H         -2.98672       -2.88756       -0.39131
