21
Coordinates from ORCA-job ./opt_b97-3c_parallel
N         -2.93532       -2.51008       -0.62382
C         -2.57158       -1.46745       -0.33110
C         -2.08064       -0.18547        0.06224
C         -1.18362       -0.02271        1.14885
C         -0.81354        1.34150        1.01148
N         -1.44846        1.91019       -0.07861
C         -2.28502        1.00301       -0.58353
H         -2.96250        1.11948       -1.44347
C          0.53648        0.91250        0.86453
C          1.59842        1.51539        0.22585
N          2.75446        0.94791       -0.16998
C          2.68596       -0.43456       -0.22154
C          1.92653       -1.57143       -0.15531
C          0.71935       -1.57286        0.41224
C          0.18660       -0.46231        1.01135
H          0.14496       -2.49754        0.41988
H          2.28790       -2.49209       -0.61278
N          3.76342       -0.41995       -0.47609
H          4.50254        0.16128       -0.87030
H          4.23055       -1.23851       -0.08869
H          1.35073        2.58849        0.22066
