18
Coordinates from ORCA-job ./opt_b97-3c_parallel
C         -2.52046       -1.22499        0.00107
C         -2.83136        0.11547        0.00108
N         -2.25597        1.07400        0.00060
C         -1.27282        1.60639       -0.00013
C         -0.18269        0.66915       -0.00259
C          1.24707        0.64255       -0.00279
C          1.26724       -0.71441       -0.00282
C          2.52285       -1.12249       -0.00036
C          3.11833        0.09277        0.00012
N          2.46080        1.29304       -0.00053
H          4.21171        0.21692        0.00086
H          2.94628       -2.12345       -0.00061
C         -0.16109       -0.76676       -0.00246
C         -1.23595       -1.70835        0.00038
H         -1.00911       -2.76932        0.00115
H         -0.87667        2.63318        0.00018
H         -3.92547        0.23329        0.00064
H         -3.33775       -1.94204        0.00086
