27
Coordinates from ORCA-job ./opt_b97-3c_parallel
N          5.80781        0.65853        0.06304
C          4.66561        0.62745        0.09210
C          3.23634        0.56399        0.09103
C          2.58276        1.80516        0.15298
C          1.37020        1.19661        0.07783
C          1.30877       -0.11267        0.02364
C          2.51100       -0.70622        0.02339
N          2.75442       -1.78008       -0.02616
H          3.75357       -1.97498       -0.05938
H          2.27293       -2.67752       -0.04435
C         -0.06230       -0.16770       -0.00286
C         -1.11921       -1.04685       -0.04106
C         -0.49760       -2.34442       -0.07164
N         -0.26973       -3.46445       -0.02706
C         -2.45081       -0.63394       -0.03983
C         -3.04424        0.63558       -0.01289
C         -4.44507        0.97403       -0.02718
N         -5.58778        0.94426       -0.00901
C         -2.36117        1.92381        0.03788
C         -1.02887        2.20993        0.08331
C         -0.06357        1.26784        0.05211
H         -0.72563        3.25421        0.08843
H         -2.98783        2.81470        0.04486
N         -3.15322       -1.49263       -0.06790
H         -4.16654       -1.39574       -0.02114
H         -2.94969       -2.48935       -0.01018
H          2.84598        2.61728       -0.52033
