24
Coordinates from ORCA-job ./opt_b97-3c_parallel
N         -3.01819       -2.80172       -0.03360
C         -2.77079       -1.68763       -0.04132
C         -2.37996       -0.31802       -0.04671
C         -1.01125       -0.00768       -0.03181
C         -0.80259        1.31956       -0.03564
N         -1.94238        2.07526       -0.05815
C         -2.84101        1.02071       -0.06233
N         -3.88768        1.38736       -0.08193
H         -4.24439        2.33497       -0.22670
H         -4.72733        0.81071        0.01584
C          0.62622        1.12928       -0.02312
C          1.76890        1.89632       -0.02475
N          3.03517        1.42691       -0.01576
C          3.12238        0.03764       -0.01089
N          4.22809       -0.02515       -0.00184
H          4.85249       -0.82200       -0.14230
H          4.86288        0.76298        0.14883
N          2.62825       -1.26967       -0.01191
C          1.24050       -1.47336       -0.02047
C          0.38769       -0.30577       -0.01894
N          1.01625       -2.56089       -0.02859
H          1.73087       -3.27947       -0.17592
H          0.15643       -3.10553        0.08676
H          1.93924        2.98548       -0.03151
