29
Coordinates from ORCA-job ./opt_b97-3c_parallel
N         -5.10341       -0.85840       -0.25152
C         -4.27356       -0.07475       -0.32630
C         -2.85161        0.02375       -0.16124
C         -2.14586        1.27726       -0.03344
N         -2.53823        2.30936        0.02790
H         -2.12823        3.24108       -0.03258
H         -3.54270        2.44932        0.13422
C         -0.80224        1.50228       -0.09841
C         -0.08971        0.75749        0.78530
C         -0.18561       -0.65095        0.99164
N         -0.93718       -1.53320        0.22136
C         -2.21142       -1.20884       -0.24905
N         -2.20834       -2.30490       -0.40700
H         -1.92496       -3.26902       -0.58047
H         -3.22894       -2.29875       -0.45763
C          1.23146       -0.72760        1.16388
C          1.34157        0.66643        0.94770
C          2.33146        1.12620        0.12049
N          2.50946        2.45044       -0.00763
H          3.38066        2.80804       -0.39941
H          2.22948        3.08285        0.74051
C          2.74413       -0.14298       -0.23755
C          3.81081       -0.17073       -1.19336
N          4.85496       -0.60238       -1.02066
C          2.09418       -1.31598        0.29237
N          2.13584       -2.41461        0.17286
H          2.12659       -3.37369       -0.17234
H          3.11935       -2.17843        0.31025
H         -0.33187        1.88612       -1.00489
