27
Coordinates from ORCA-job ./opt_b97-3c_parallel
N         -1.50924       -3.58171       -0.15244
C         -1.60104       -2.46745        0.07767
C         -1.61340       -1.06751        0.36525
C         -0.70663       -0.53260        1.33348
C         -0.83568        0.88960        1.28941
C         -1.81265        1.24249        0.39159
C         -2.12053        2.61821        0.14067
N         -1.90087        3.17298       -0.83445
C         -2.33249        0.00197       -0.13838
N         -3.12736       -0.09030       -0.89922
H         -3.65400        0.76456       -1.08050
H         -3.80999       -0.84798       -0.89098
C          0.56944        0.98699        0.99950
C          1.24591        1.93684        0.17596
C          2.59626        1.66816       -0.24035
C          3.20192        0.42082       -0.24971
N          2.80536       -0.87441       -0.16477
C          1.53506       -1.27189        0.25195
C          0.69658       -0.41576        1.04082
N          1.60631       -2.34415       -0.01809
H          0.67083       -2.75541       -0.07253
H          2.23723       -3.12865       -0.18781
N          4.25070        0.23932       -0.55569
H          4.99041       -0.41903       -0.80422
H          4.73044        1.12982       -0.41485
H          3.14218        2.54027       -0.59444
H          0.84474        2.93968        0.07131
