24
Coordinates from ORCA-job ./opt_b97-3c_parallel
N         -0.57901       -2.57122       -0.22820
C         -1.10232       -1.35645        0.00792
C         -0.04144       -0.53624        0.18007
C          0.88587        0.14296        0.38356
C          1.15377        1.27997        0.45465
N          2.41172        0.75994        0.08871
C          2.62258       -0.56699       -0.23897
N          1.73489       -0.55727        0.69157
N          3.69329       -0.65495       -0.48888
H          4.22412       -1.52236       -0.40909
H          4.30858        0.01692       -0.94556
C         -0.17168        0.84463        0.17250
C         -1.34241        1.70297        0.11593
N         -1.21412        2.79659        0.21010
H         -0.71987        3.61015       -0.15489
H         -2.09139        3.14960        0.59181
C         -2.71150        1.26860       -0.10104
C         -3.21193       -0.07827       -0.27648
C         -2.43414       -1.28259       -0.22767
H         -3.01069       -2.19377       -0.36953
H         -4.27874       -0.18819       -0.44683
H         -3.47611        2.04175       -0.15173
H          0.01373       -3.00969        0.47466
H         -1.18538       -3.30808       -0.58892
