20
Coordinates from ORCA-job ./opt_b97-3c_parallel
N          4.09531       -0.11558        0.08446
C          3.00991       -0.30337        0.06123
N          1.91635       -1.13174        0.07577
C          0.84747       -0.28504        0.00868
C          0.82088        1.10816       -0.05795
N          1.86594        0.31570       -0.01045
C         -0.61896        0.85389       -0.04532
C         -1.74168        1.71477       -0.06765
C         -3.00363        1.21458        0.00684
C         -3.53645       -0.04821        0.02201
C         -2.89434       -1.35016        0.07303
C         -1.46630       -1.58355        0.08641
C         -0.56301       -0.48065        0.02147
H         -1.08536       -2.59919        0.13124
H         -3.54136       -2.22207        0.10439
H         -4.62076       -0.11582        0.01885
H         -3.76051        1.99253        0.08007
H         -1.58118        2.78737       -0.11747
H          4.75115        0.65707        0.19385
H          4.62600       -0.97069        0.24472
