24
Coordinates from ORCA-job ./opt_b97-3c_parallel
N         -1.59175       -3.29062        0.05214
C         -1.60433       -2.14947        0.04052
C         -1.57416       -0.72359        0.02110
C         -0.31475       -0.03413       -0.00259
C          1.06528       -0.41849       -0.00620
C          1.44168        0.81066       -0.02701
C          2.84127        0.89541       -0.03410
N          3.24338       -0.47804       -0.01345
C          2.14406       -1.33120        0.00471
N          2.09659       -2.43065        0.02603
H          3.03898       -2.81388        0.09729
H          1.46913       -3.23431       -0.00957
N          3.68468        1.60940       -0.04681
H          4.66538        1.33004        0.00981
H          3.69687        2.62779       -0.11832
C          0.09334        1.29732       -0.02510
N         -0.44506        2.51118       -0.03415
C         -1.80540        2.27457       -0.01654
N         -2.92550        1.45420        0.00641
C         -2.80910        0.05553        0.02410
N         -3.90747       -0.08892        0.03883
H         -4.16175       -1.07869        0.03065
H         -4.79736        0.41174        0.07701
H         -2.16471        3.31688       -0.02588
