26
Coordinates from ORCA-job ./opt_b97-3c_parallel
N         -5.14497       -0.81298       -1.64770
C         -4.25449       -0.61349       -0.95972
C         -3.17263       -0.35679       -0.06516
C         -2.60042       -1.34400        0.71383
C         -1.62521       -0.60343        1.33949
C         -1.63961        0.71492        0.98977
C         -2.56367        0.93684        0.02746
H         -2.75502        1.80423       -0.59766
C         -0.22563        0.69771        0.82414
C          0.60782        1.37102       -0.11539
C          0.26461        2.51656       -0.90513
N         -0.22090        3.50872       -0.60780
C          1.91092        0.99868       -0.23696
C          2.33001       -0.27179       -0.51620
C          3.52440       -0.28062       -1.30528
N          4.48929       -0.33251       -1.91435
C          1.71459       -1.52175       -0.11618
N          0.53368       -1.67326        0.61861
C         -0.18805       -0.61998        1.17669
N          1.85162       -2.61475       -0.21280
H          2.87068       -2.67659       -0.23688
H          1.51345       -3.56589       -0.36020
N          2.59648        1.64089        0.73109
H          3.61613        1.65303        0.70833
H          2.30268        2.57674        1.01459
H         -2.39303       -2.33102        0.30573
