25
Coordinates from ORCA-job ./opt_b97-3c_parallel
N          5.36896        0.72559        0.04225
C          4.23074        0.61194        0.03187
C          2.81359        0.43048        0.01954
C          1.92004        1.55468        0.01130
N          0.85534        1.84482        0.00240
C         -0.06558        1.23466       -0.01412
C         -1.49711        1.03462       -0.03945
C         -1.46585       -0.28086       -0.03853
C         -2.75413       -0.84563       -0.05793
C         -3.58528        0.28032       -0.08529
C         -2.84094        1.46779       -0.06016
N         -3.21500        2.50396       -0.06065
H         -2.64267        3.34595       -0.06098
H         -4.18775        2.80284       -0.03253
H         -4.61421        0.24058        0.26678
N         -2.99754       -1.91997       -0.05323
H         -3.93755       -2.28501        0.08831
H         -2.36219       -2.71589       -0.01772
C         -0.05584       -0.25299       -0.01418
C          0.93009       -1.21543       -0.00007
C          0.59431       -2.60432       -0.00639
N          0.10697       -3.63765        0.02408
C          2.33956       -0.87495        0.01583
H          3.05232       -1.69579        0.02305
H          2.36134        2.56337        0.01385
