25
Coordinates from ORCA-job ./opt_b97-3c_parallel
N         -3.62090       -2.03252       -0.50935
C         -2.99075       -1.08311       -0.44619
C         -2.11284        0.04941       -0.33798
C         -1.09059        0.60120       -0.33354
C         -0.86911        1.75219       -0.51503
C         -1.89059        2.04932        0.33279
C         -2.69152        1.02777        0.40164
H         -3.62543        0.97586        0.96384
H         -2.06163        3.01610        0.80505
C          0.27506        0.99414       -0.22779
C          1.58621        1.46260       -0.23313
N          2.73862        0.78975       -0.05800
C          2.54563       -0.56548        0.12228
N          3.56608       -0.97865        0.25257
H          3.85917       -1.95805        0.28199
H          4.44094       -0.45675        0.34285
N          1.73992       -1.68252        0.21838
C          0.36022       -1.53512        0.08167
C         -0.33881       -0.27592       -0.14654
N         -0.10715       -2.54036        0.15500
H         -1.10831       -2.62656       -0.05259
H          0.16330       -3.49637        0.40321
N          1.97165        2.49870       -0.35375
H          1.26474        3.17715       -0.65048
H          2.79203        3.07849       -0.15464
