22
Coordinates from ORCA-job ./opt_b97-3c_parallel
N         -4.62595       -1.75602        0.12708
C         -3.63133       -1.19410        0.12950
C         -2.38605       -0.49485        0.08936
C         -1.12421       -1.18836        0.15074
C          0.05339       -0.39510        0.08070
C          1.45886       -0.66081        0.08522
C          1.72651        0.63945       -0.05718
C          3.01027        1.04346       -0.15568
C          3.11075       -0.34767       -0.02462
C          2.45185       -1.57399        0.13521
H          2.51262       -2.36433       -0.61057
N          4.20568       -0.57376       -0.07011
H          4.61337       -1.50101       -0.17429
H          4.97711        0.09009       -0.10413
H          3.42839        1.72446        0.58386
C          0.32324        0.93083       -0.05136
C         -0.45635        2.11542       -0.15508
N         -1.79422        1.97914       -0.11954
C         -2.57121        0.87724       -0.01812
H         -3.48039        1.49488       -0.06396
H         -0.08121        3.14528       -0.25329
H         -1.07218       -2.26860        0.23724
