25
Coordinates from ORCA-job ./opt_b97-3c_parallel
N          2.30010        1.76341       -1.11216
C          2.56890        1.57304       -0.01692
C          1.89287        0.43434        0.52738
C          0.71239        0.19308        1.29309
C          0.45110       -1.13821        1.31118
N          1.37223       -1.80613        0.52770
C          2.30987       -0.83699        0.15114
N          3.05104       -1.42100       -0.43013
H          3.52208       -0.78774       -1.08086
H          3.71384       -2.18268       -0.27123
C         -0.88636       -0.80821        0.90084
C         -1.86693       -1.50298        0.21151
N         -2.89878       -0.98210       -0.48149
C         -2.80789        0.39368       -0.63789
C         -2.14141        1.57825       -0.49674
C         -1.03419        1.66213        0.24459
C         -0.57070        0.58947        0.96657
N         -0.38173        2.81504        0.45287
H         -0.90881        3.68926        0.49028
H          0.45944        3.02743       -0.08448
H         -2.51811        2.46429       -1.00825
H         -3.72620        0.65008       -1.19071
N         -2.22242       -2.51342       -0.06951
H         -2.11498       -3.24250       -0.77737
H         -3.04690       -2.79029        0.46899
