22
Coordinates from ORCA-job ./opt_b97-3c_parallel
N          0.05653        3.75539       -0.08725
C          0.27255        2.64203        0.05516
C         -0.27008        1.33859       -0.16838
C          0.33318        0.26983       -0.79840
C          1.72115       -0.00812       -0.96632
C          1.39951       -1.39526       -0.93630
C          2.22082       -1.97279       -0.01999
C          2.99168       -1.00110        0.46923
C          2.72029        0.18883       -0.06698
H          3.21852        1.13012        0.15524
H          3.76389       -1.16266        1.21844
H          2.25925       -3.02652        0.24603
C         -0.00691       -1.11078       -0.80896
C         -0.94838       -1.72155       -0.04413
C         -2.06732       -0.96477        0.13525
N         -2.58768        0.25664        0.32277
C         -1.64982        1.28952        0.26444
H         -2.27513        2.10414        0.66139
N         -3.09028       -1.37820        0.22056
H         -4.06977       -1.09299        0.19163
H         -3.10334       -2.39731        0.19285
H         -0.91720       -2.79254        0.15223
