26
Coordinates from ORCA-job ./opt_b97-3c_parallel
N         -4.18968       -0.56684        1.97390
C         -3.41808       -0.43053        1.14303
C         -2.41818       -0.25711        0.13625
C         -1.72771       -1.39372       -0.41498
C         -0.79072       -0.87086       -1.35276
C         -0.83548        0.47836       -1.29919
C         -1.84412        0.89994       -0.36840
N         -2.00737        1.95963       -0.10346
H         -2.25470        2.63511       -0.82634
H         -2.82859        1.87803        0.49682
C          0.51675        0.59861       -1.07277
C          1.11480        1.45662       -0.19089
C          2.39065        1.18623        0.21970
N          3.19312        0.07320        0.44561
C          2.56049       -1.14235        0.21035
C          1.33961       -1.60436       -0.20007
C          0.61941       -0.84484       -1.07895
H          0.87565       -2.46234        0.28489
N          3.39257       -1.84106        0.42057
H          4.26588       -2.04157       -0.06970
H          3.23718       -2.64500        1.03138
N          3.11512        1.99462        0.43496
H          3.91203        2.38481       -0.07047
H          2.77736        2.75160        1.03205
H          0.61489        2.37667        0.10940
H         -1.84172       -2.43067       -0.11387
