22
Coordinates from ORCA-job ./opt_b97-3c_parallel
N          4.66260        0.67331       -0.11066
C          3.55466        0.39986       -0.07197
C          2.17751        0.01456       -0.02216
C          1.96148       -1.34336        0.13249
N          0.85486       -2.11558        0.23498
C         -0.39031       -1.55926       -0.03461
C         -0.65417       -0.23991       -0.71532
C         -1.99272        0.23173       -1.14399
C         -1.48463        0.70894        0.15795
N         -2.72476        1.08035        0.82226
C         -3.77328        0.59733        0.15041
N         -2.94335       -0.00445       -0.63835
H         -4.70367        0.92519        0.64111
C         -0.02689        0.91186       -0.02734
C          1.07723        0.94477       -0.06627
N          1.11988        2.04900       -0.14134
H          2.08191        2.37080       -0.03050
H          0.54584        2.89332       -0.14093
N         -0.91473       -2.50385        0.19908
H         -1.88381       -2.18294        0.23883
H         -0.93602       -3.49537        0.43695
H          2.77030       -2.08106        0.25479
