25
Coordinates from ORCA-job ./opt_b97-3c_parallel
N         -2.57244       -3.23915        0.21961
C         -1.58770       -2.66398        0.14675
C         -0.37661       -1.91435        0.03031
C         -0.39725       -0.55280       -0.12772
C         -1.42400        0.44709       -0.15335
C         -0.58619        1.38986       -0.14472
C         -1.18347        2.64880       -0.04700
N         -2.01429        1.80977       -0.08167
C         -2.74652        0.88441       -0.06024
N         -3.74344        0.43313        0.04228
H         -4.57543        0.99344        0.21412
H         -4.01692       -0.54480        0.11514
H         -0.86171        3.69468        0.06694
C          0.53352        0.48896       -0.11865
C          1.89139        0.62059        0.03998
C          2.29218        1.99212        0.15872
N          2.86362        2.96653       -0.02096
C          2.59909       -0.63967        0.08679
C          2.11532       -1.90665       -0.14704
C          0.92204       -2.53637        0.10395
H          0.92069       -3.61159        0.25639
H          2.80843       -2.56666       -0.67116
N          3.69169       -0.58919        0.25219
H          4.48489       -1.22147        0.16531
H          4.05500        0.35326        0.11449
