25
Coordinates from ORCA-job ./opt_b97-3c_parallel
N          3.31753        2.26164       -0.55684
C          2.93331        1.22779       -0.25592
C          2.43153       -0.04502        0.15387
C          1.17129       -0.19300        0.82252
C          0.88868       -1.58378        0.59841
C          1.94327       -2.17353       -0.02849
C          2.86837       -1.25962       -0.27943
H          3.82350       -1.44780       -0.76486
H          2.01951       -3.23151       -0.26844
C         -0.30281       -1.14468       -0.05441
C         -1.55789       -1.80706        0.15933
C         -2.84668       -1.18381       -0.04014
C         -3.11407        0.22898       -0.23744
C         -2.17465        1.29869       -0.00304
C         -0.92489        1.15749        0.51648
C         -0.01855        0.23040        0.12686
N         -0.24859        2.31512        0.40292
H         -0.69057        3.11640       -0.04356
H          0.72679        2.30706        0.10775
H         -2.57149        2.30092       -0.16315
N         -4.15598        0.48951       -0.49235
H         -4.42362        1.35266       -0.02321
H         -4.89862       -0.18327       -0.31268
H         -3.69385       -1.86508       -0.06468
H         -1.53777       -2.87790        0.33381
