26
Coordinates from ORCA-job ./opt_b97-3c_parallel
N         -3.43137       -3.56728        0.00491
C         -2.74730       -2.65162        0.00222
C         -1.92590       -1.48025        0.00581
C         -2.53660       -0.15763        0.02083
C         -1.94289        1.10746        0.02886
C         -2.97832        2.10184        0.04167
N         -3.64722        3.02708       -0.01881
C         -0.62499        1.53910        0.02734
C          0.38701        0.54069        0.01462
C          1.80927        0.47772        0.00466
C          1.84208       -0.82836       -0.01009
C          3.12757       -1.25484       -0.02633
C          3.89081       -0.12945       -0.02066
C          3.10181        1.01632        0.00198
H          3.37661        2.06600        0.01723
N          5.23158       -0.11855       -0.04520
H          5.74411        0.71480        0.23683
H          5.75813       -0.93468        0.26027
H          3.47369       -2.28558       -0.04949
C          0.40253       -0.83324       -0.00031
C         -0.58909       -1.84420       -0.00619
H         -0.27006       -2.88381       -0.01869
N         -0.12894        2.52831        0.03277
H          0.77418        2.96635       -0.13635
H         -0.83113        3.26445       -0.02425
H         -3.62399       -0.21572        0.02561
