26
Coordinates from ORCA-job ./opt_b97-3c_parallel
N         -1.06111       -3.62501       -0.01167
C         -0.99143       -2.49376        0.11748
C         -0.96251       -1.06947        0.25036
C          0.14184       -0.38398        0.87593
C          1.47592       -0.84146        1.09382
C          1.86616        0.45892        1.10928
C          2.80762        0.56704        0.04177
C          3.13443       -0.61317       -0.58332
C          2.19549       -1.42967        0.00530
H          1.82617       -2.33287       -0.46995
H          4.17090       -0.93857       -0.66492
N          3.13030        1.47929       -0.49062
H          3.27200        2.46647       -0.70044
H          4.05414        1.11564       -0.25548
C          0.51517        0.93555        0.91248
C         -0.03766        1.88143        0.10286
C         -1.39556        1.81633        0.01173
N         -2.44834        0.92138       -0.13247
C         -2.12877       -0.39528       -0.09623
N         -3.16139       -0.60440       -0.44967
H         -4.16593       -0.42941       -0.50473
H         -3.06784       -1.61652       -0.56490
N         -1.89751        2.80343       -0.00186
H         -2.69793        3.30468       -0.39094
H         -1.33460        3.52188        0.45804
H          0.55132        2.32960       -0.69709
