25
Coordinates from ORCA-job ./opt_b97-3c_parallel
N         -3.38501       -3.55300        0.07610
C         -2.74257       -2.60865        0.06105
C         -1.90215       -1.45084        0.04222
C         -2.48205       -0.11633       -0.01275
C         -1.85381        1.13176       -0.05015
C         -2.86820        2.14618       -0.11373
N         -3.27396        3.20721        0.01198
C         -0.52295        1.52658       -0.04013
C          0.46348        0.50367        0.03891
C          1.88533        0.40904        0.05258
C          1.88503       -0.90616        0.10379
C          3.09370       -1.52863        0.09539
C          3.73446       -0.27652        0.03214
N          3.09586        0.98355       -0.00868
N          4.82002       -0.05609        0.00793
H          5.59922       -0.71421       -0.01068
H          5.24088        0.87353        0.02007
H          3.30902       -2.31224       -0.62820
C          0.44448       -0.86179        0.08905
C         -0.57446       -1.84669        0.08291
H         -0.28483       -2.89492        0.11756
N          0.02661        2.48816       -0.07019
H         -0.83731        3.03144       -0.05747
H          0.78104        3.17158       -0.03064
H         -3.57091       -0.14901       -0.03173
