28
Coordinates from ORCA-job ./opt_b97-3c_parallel
N         -0.49953       -3.67893        0.00386
C         -0.73453       -2.56081        0.00277
C         -1.07202       -1.17293        0.00527
C         -0.05548       -0.24524       -0.03030
C          1.37010       -0.32950       -0.05232
C          1.50006        0.94622       -0.05522
C          2.85641        1.33079       -0.05187
N          2.96497        2.42780       -0.03846
H          3.95574        2.19273        0.00562
H          2.91846        3.42472       -0.24216
C          3.54229        0.10394       -0.05777
C          2.62641       -0.95736       -0.04641
N          2.63909       -2.05786       -0.01252
H          3.62815       -2.24420        0.14503
H          2.16796       -2.96135       -0.01173
H          4.51925        0.00552        0.41111
C          0.08577        1.15344       -0.03497
C         -0.80596        2.17760        0.01838
C         -2.05336        1.62036        0.04284
N         -2.86509        0.54559        0.05713
C         -2.45795       -0.74914        0.03730
N         -3.52173       -1.04251        0.06446
H         -3.13834       -1.98731        0.07891
H         -4.53334       -1.14869        0.00104
N         -2.92591        2.29913        0.10364
H         -3.94215        2.23697        0.03776
H         -2.72303        3.27875        0.30118
H         -0.59711        3.11157       -0.50215
