29
Coordinates from ORCA-job ./opt_b97-3c_parallel
N         -5.39345       -1.16327        0.02464
C         -4.36324       -0.66854       -0.00089
C         -3.05585       -0.07453       -0.00800
C         -3.17393        1.31986       -0.01728
C         -2.24063        2.34956       -0.02387
C         -0.86142        2.31689       -0.02311
C         -0.20631        1.05974       -0.01897
C          1.15532        0.61714       -0.02338
C          0.72277       -0.65478       -0.01706
C          1.80197       -1.56535       -0.02034
C          1.40135       -2.93770       -0.01388
N          1.41392       -4.08042       -0.02417
C          2.89067       -0.66032       -0.02926
C          2.49683        0.76807       -0.03119
C          3.43053        1.84948       -0.04002
N          4.15882        2.72998       -0.02729
N          3.88521       -1.14287       -0.03446
H          4.22574       -2.10251       -0.06338
H          4.69940       -0.53609       -0.11601
C         -0.59537       -0.26178       -0.01269
C         -1.86745       -0.90675       -0.00587
N         -1.78321       -2.00891        0.00014
H         -2.70160       -2.44936        0.01809
H         -1.09610       -2.76060        0.00725
N         -0.21648        3.21154       -0.02673
H          0.78886        3.37423       -0.01109
H         -0.66086        4.10299        0.18447
H         -2.68160        3.34354       -0.03066
H         -4.19153        1.70656       -0.01934
