23
Coordinates from ORCA-job ./opt_b97-3c_parallel
N          0.57446        3.32191        0.00160
C          0.82731        2.20752       -0.02096
C          1.16623        0.81413       -0.01878
C          0.10071       -0.06046       -0.02894
C         -1.32842        0.04235       -0.02534
C         -1.46364       -1.21718       -0.01262
C         -2.82091       -1.56465        0.01791
N         -2.74753       -0.39029        0.00154
C         -2.52549        0.76341       -0.00547
N         -2.96733        1.76979        0.00857
H         -3.92713        2.05892        0.18431
H         -2.38208        2.59855        0.09195
H         -3.35248       -2.52715        0.05348
C         -0.12149       -1.51405       -0.01615
N          0.72786       -2.54867        0.00927
C          2.01862       -2.06967        0.00924
C          2.88885       -1.02259       -0.00231
C          2.52422        0.30308       -0.00320
N          3.41477        0.96092        0.01084
H          4.42031        0.81241        0.06688
H          3.26309        1.96813        0.02428
H          3.94747       -1.29090       -0.00509
H          2.51374       -3.05216        0.02819
