25
Coordinates from ORCA-job ./opt_b97-3c_parallel
N         -1.14353       -3.66246       -0.00964
C         -1.23741       -2.52440        0.00668
C         -1.29202       -1.09061        0.03174
C         -0.04440       -0.40932        0.11660
C          1.34456       -0.81383        0.11019
C          1.66682        0.50509        0.08521
C          3.04096        0.66530       -0.04968
N          3.93619        1.30295       -0.16382
H          4.04554        2.31096       -0.28519
H          4.88916        0.93452       -0.13419
N          3.20560       -0.74421       -0.08839
C          2.30544       -1.76807       -0.02545
H          2.54398       -2.84280       -0.04734
C          0.32491        0.97581        0.12361
N         -0.32984        2.18265        0.02903
C         -1.67730        2.10444        0.01116
C         -2.61802        1.07943        0.00841
C         -2.44542       -0.31046        0.00545
N         -3.44342       -0.79325       -0.02944
H         -3.45926       -1.81357       -0.00725
H         -4.42294       -0.51264       -0.09368
H         -3.64672        1.45131       -0.00987
N         -1.81703        3.20284       -0.00216
H         -1.38146        4.12653        0.00600
H         -2.82011        3.38834        0.05860
