21
Coordinates from ORCA-job ./opt_b97-3c_parallel
N          2.75294        1.72537       -0.19857
C          2.14632        0.57174        0.11622
C          1.12478        0.33013        0.98374
C          0.86508       -1.08411        0.98398
C          1.71318       -1.62265        0.07155
C          2.45509       -0.62083       -0.40248
H          3.23701       -0.76503       -1.14475
H          1.78795       -2.67179       -0.20307
C         -0.45320       -0.80912        0.72873
C         -1.48196       -1.59927        0.14482
C         -2.70591       -0.97309       -0.29492
N         -3.04303        0.33258       -0.44131
C         -2.24896        1.46600       -0.24930
C         -0.95588        1.57671        0.20733
C         -0.27428        0.51568        0.71713
H         -0.47936        2.55154        0.19955
H         -2.97399        2.20119       -0.62902
H         -3.59767       -1.49425       -0.67322
H         -1.37794       -2.67838        0.09902
H          3.71684        1.72132       -0.52641
H          2.62516        2.54461        0.39200
