22
Coordinates from ORCA-job ./opt_b97-3c_parallel
N          2.56958        1.96767        0.39494
C          1.79606        1.25664        0.04186
N          2.41019        0.06604        0.21593
C          1.60794       -1.04634        0.02866
N          0.42218       -1.63153       -0.34815
C         -0.40672       -0.74767       -1.00845
C         -1.84180       -0.71246       -0.98057
C         -1.81602        0.71956       -0.97764
C         -2.63786        1.12971        0.02317
C         -3.13458        0.02763        0.58544
C         -2.67585       -1.09217        0.02394
H         -2.95205       -2.11081        0.28991
H         -3.85026        0.03957        1.40565
H         -2.88165        2.15713        0.28688
C         -0.38712        0.67078       -0.97764
C          0.51040        1.60695       -0.34770
H          0.15919        2.63431       -0.28228
N          2.15034       -1.96083        0.33321
H          1.69843       -2.82931        0.62503
H          3.13034       -2.20595        0.18682
H          3.58835        2.04424        0.36433
H          2.24766        2.90791        0.63304
