23
Coordinates from ORCA-job ./opt_b97-3c_parallel
N         -1.57111       -3.56916        0.00119
C         -1.73086       -2.43687        0.00151
C         -1.88539       -1.01825        0.00219
C         -3.17845       -0.37310        0.00206
N         -3.56366        0.67407        0.00192
C         -3.10703        1.69207        0.00141
C         -1.85851        2.26258        0.00753
C         -0.85919        1.33445        0.00348
C          0.56952        1.20477        0.00141
C          0.52676       -0.08693        0.00062
C          1.80654       -0.68812       -0.00085
C          2.62671        0.46298       -0.00103
C          4.04170        0.65964       -0.00235
N          5.13521        0.32701       -0.00002
C          1.87029        1.72895        0.00080
H          2.21353        2.75864        0.00056
N          1.96210       -1.77915       -0.00146
H          2.95484       -2.01065       -0.00055
H          1.45213       -2.66073       -0.00062
C         -0.83540       -0.13150        0.00175
H         -1.68394        3.33549       -0.00613
H         -3.86347        2.49169       -0.00052
H         -4.03938       -1.05865        0.00197
