20
Coordinates from ORCA-job ./opt_b97-3c_parallel
N         -4.25484       -1.74022       -0.00287
C         -3.31203       -1.09407       -0.00206
C         -2.15662       -0.25075       -0.00088
C         -2.29691        1.19896       -0.00026
C         -1.34759        2.19191        0.00106
C          0.01338        2.21742        0.00216
C          0.69374        0.97939        0.00180
C          2.02905        0.49636        0.00279
C          1.65639       -0.74524        0.00180
N          2.55074       -1.71438        0.00236
C          3.70666       -0.86139        0.00398
C          3.41740        0.58989        0.00437
H          4.07665        1.45134        0.00564
H          4.71785       -1.29494        0.00499
C          0.27832       -0.33433        0.00079
C         -0.98347       -0.99711       -0.00040
H         -0.99459       -2.08413       -0.00091
H          0.58670        3.13902        0.00321
H         -1.78348        3.18830        0.00144
H         -3.33221        1.52791       -0.00088
