22
Coordinates from ORCA-job ./opt_b97-3c_parallel
N          2.63775        3.92598        0.00033
C          2.20444        2.86839        0.00010
C          1.70538        1.52823       -0.00040
C          2.64081        0.40896       -0.00038
C          2.39153       -1.02689       -0.00000
C          3.49488       -1.93690        0.00110
N          4.39995       -2.63496        0.00153
C          1.18247       -1.69904       -0.00076
C          0.00783       -1.01792       -0.00237
C         -1.38717       -1.40253       -0.00293
C         -1.70593       -0.14133       -0.00298
C         -3.07400       -0.01057       -0.00129
C         -4.00203        1.07351        0.00145
N         -4.84438        1.84637       -0.00042
C         -3.32936       -1.37792       -0.00040
N         -2.34051       -2.28182       -0.00040
H         -4.34804       -1.79268        0.00188
C         -0.36500        0.30230       -0.00291
C          0.31908        1.54005       -0.00137
H         -0.25913        2.46117       -0.00111
H          1.15056       -2.78586       -0.00028
H          3.69033        0.69064        0.00068
