23
Coordinates from ORCA-job ./opt_b97-3c_parallel
N         -0.00117       -3.74373        0.01041
C         -0.30902       -2.64406       -0.01333
C         -0.71094       -1.26724       -0.00907
C          0.31801       -0.28729       -0.00863
C          1.74929       -0.25708       -0.00715
C          1.76071        1.00979       -0.00525
C          3.05244        1.53881       -0.00108
N          3.08479        0.35726       -0.00299
C          3.02460       -0.82389       -0.00379
H          3.56244       -1.78447       -0.00148
H          3.75959        2.38228        0.00289
C          0.32606        1.09119       -0.00662
N         -0.55754        2.07847       -0.00372
C         -1.86206        1.75771       -0.00280
N         -2.24684        2.79400       -0.00111
H         -3.26488        2.85229       -0.00162
H         -1.91348        3.75786       -0.00125
C         -2.52930        0.53230       -0.00367
C         -2.02148       -0.77888       -0.00620
N         -2.87536       -1.48698       -0.00570
H         -2.57229       -2.46182       -0.00033
H         -3.89473       -1.51805       -0.00153
H         -3.61641        0.64544       -0.00212
