20
Coordinates from ORCA-job ./opt_b97-3c_parallel
N          4.95857        0.47483        0.02701
C          3.81746        0.40934        0.01283
C          2.39316        0.29698        0.01831
C          1.65775       -0.91521        0.03016
C          0.33680       -0.40704        0.02819
C          0.28933        0.87786        0.01405
C          1.54114        1.50019        0.00520
H          1.80473        2.55239       -0.01022
C         -1.11855        0.82945        0.00855
N         -2.15164        1.74142       -0.02352
C         -3.35761        1.05699       -0.02763
N         -3.92807       -0.20906       -0.01147
C         -2.97659       -1.22223        0.01302
N         -1.76042       -1.69136        0.02856
C         -1.10087       -0.57980        0.02473
H         -3.77670       -1.97747        0.02941
H         -4.13534        1.83513       -0.05359
N          1.87304       -1.99717        0.03581
H          2.88696       -2.06132       -0.04271
H          1.50475       -2.93574       -0.10604
