21
Coordinates from ORCA-job ./opt_b97-3c_parallel
N          3.46971       -0.06923       -0.73308
C          2.61681       -0.14877       -0.03534
N          1.94343        1.01899        0.33611
C          1.01635        0.54992        1.22675
C          1.13839       -0.86255        1.09561
N          2.13304       -1.29677        0.38470
C         -0.26202       -0.93707        0.77335
C         -0.97770       -1.86413        0.06594
C         -2.31520       -1.58849       -0.38842
C         -2.95284       -0.35657       -0.41799
N         -2.48275        0.95155       -0.26220
C         -1.25914        1.36273        0.24998
C         -0.38551        0.45022        0.92614
N         -1.44622        2.42603        0.00206
H         -2.37435        2.84552        0.10436
H         -0.84654        3.20594       -0.27238
H         -3.96831       -0.47200       -0.83059
H         -2.87021       -2.44457       -0.76415
H         -0.58963       -2.87176       -0.05721
H          4.13630        0.69854       -0.83122
H          3.95167       -0.89266       -1.09805
