23
Coordinates from ORCA-job ./opt_b97-3c_parallel
N          4.35493        1.43243       -0.92881
C          3.37996        0.90986       -0.64448
C          2.15559        0.28077       -0.24992
C          1.01321        1.00328        0.26211
C         -0.07832        0.22751        0.77969
C         -1.41252        0.59169        1.17977
C         -1.73811       -0.79977        1.08307
C         -2.82209       -1.14549        0.33221
C         -3.10917        0.14046       -0.08545
N         -2.28697        1.19298        0.31293
N         -3.87905        0.58459       -0.74404
H         -4.76364        0.12946       -0.97032
H         -3.99663        1.56544       -0.99900
H         -3.59438       -1.79462        0.73968
C         -0.44459       -1.06729        0.70892
C          0.13248       -2.20192        0.06445
N          1.38669       -2.12499       -0.40102
C          2.23402       -1.08138       -0.48010
H          3.01884       -1.74152       -0.88075
H          0.20737       -3.23001       -0.32242
N          0.88104        2.09263        0.40060
H          1.87170        2.25987        0.57584
H          0.51613        2.95281       -0.00539
