24
Coordinates from ORCA-job ./opt_b97-3c_parallel
N          4.29229        1.63257        0.29977
C          3.26068        1.15138        0.21929
C          1.99425        0.48840        0.10930
C          2.02685       -0.89475       -0.03312
N          1.05817       -1.83607       -0.17119
C         -0.28359       -1.50086        0.02524
C         -0.80016       -0.25218        0.69928
C         -2.16541        0.11627        1.14785
C         -1.74801        0.54839       -0.20170
N         -3.02799        0.69681       -0.87442
C         -4.00169        0.13283       -0.15306
N         -3.04028       -0.28077        0.60764
H         -4.98535        0.28514       -0.62600
C         -0.33571        0.96171       -0.01181
C          0.73961        1.20079        0.07885
N          0.57455        2.29555        0.12941
H          1.40666        2.86403       -0.03429
H         -0.19571        2.96421        0.19422
N         -0.79604       -2.45756       -0.19811
H         -0.83773       -3.43710       -0.48443
H         -1.77223       -2.15008       -0.16670
N          2.77161       -1.71424       -0.11805
H          3.60364       -1.12019       -0.08536
H          3.13769       -2.66488       -0.19309
