25
Coordinates from ORCA-job ./opt_b97-3c_parallel
N          3.83943        1.45289       -0.08502
C          2.83279        0.56335       -0.05717
C          3.28860       -0.73159       -0.05653
C          2.51756       -1.96387       -0.01480
C          1.13347       -2.07423        0.02368
C          0.30235       -0.91127        0.01604
C         -1.10073       -0.64192        0.02461
C         -0.91996        0.63289       -0.01767
C         -2.12430        1.36834       -0.03657
N         -2.44935        2.42172       -0.07636
H         -3.41070        2.76049       -0.09216
H         -1.85551        3.23782       -0.21998
N         -3.07738        0.35578        0.00540
C         -2.46484       -0.93770        0.04451
N         -3.22691       -1.73153        0.07543
H         -2.81062       -2.65521        0.18716
H         -4.23556       -1.85821        0.14445
C          0.49755        0.45923       -0.02662
C          1.66181        1.25854       -0.06824
H          1.57575        2.34192       -0.10205
H          0.66651       -3.05399        0.05101
H          3.11084       -2.87336       -0.01759
H          4.36156       -0.90815       -0.08747
H          4.79139        1.15782        0.12763
H          3.71402        2.39288        0.28578
