25
Coordinates from ORCA-job ./opt_b97-3c_parallel
N          3.94765        2.01643        0.12420
C          2.99240        1.39195        0.08694
C          1.81693        0.56884        0.04317
C          2.02886       -0.86946       -0.02947
N          1.15704       -1.90782       -0.07875
C         -0.18783       -1.96926       -0.07937
C         -0.94192       -0.76778       -0.02142
C         -2.37028       -0.55098        0.00248
C         -1.97844        0.84032        0.06996
C         -2.67733        2.00487        0.15542
C         -3.57970        0.98032        0.12537
N         -3.37958       -0.10326        0.03407
H         -4.66291        1.13330        0.25540
H         -2.64324        2.73913       -0.64580
C         -0.63755        0.53667        0.04428
C          0.60340        1.25457        0.08012
N          0.36887        2.33672        0.13603
H          1.17271        2.90410        0.40635
H         -0.36335        2.99596       -0.12595
N         -0.54795       -3.01186       -0.12337
H         -0.25070       -3.91686        0.23978
H         -1.53369       -3.11365       -0.36594
N          2.76817       -1.68922       -0.07050
H          3.29051       -2.55684        0.04380
H          3.46478       -0.94956       -0.15717
