26
Coordinates from ORCA-job ./opt_b97-3c_parallel
N          5.78820        0.14428        0.12308
C          4.64733        0.08692        0.12104
C          3.22146       -0.00256        0.08145
C          2.55104        1.23133        0.12598
C          1.35227        0.60018        0.03554
C          1.30905       -0.71921       -0.00934
C          2.52200       -1.28924        0.00890
N          2.63587       -2.38549       -0.03167
H          2.53113       -3.39273       -0.13993
H          3.64013       -2.20329       -0.03732
C         -0.06037       -0.79636       -0.03770
N         -1.02309       -1.77260       -0.04648
C         -2.36245       -1.39302       -0.03162
N         -2.57475       -2.47982       -0.05736
H         -3.59155       -2.37225       -0.04900
H         -2.40436       -3.48463       -0.01794
C         -2.95800       -0.12749       -0.00236
C         -4.39101       -0.08560       -0.00650
N         -5.27752       -0.80923       -0.00261
C         -2.43092        1.23204        0.04646
C         -1.10092        1.60271        0.07012
C         -0.77980        2.99163        0.12624
N         -0.50429        4.10026        0.14353
C         -0.08006        0.62307        0.01902
H         -3.16214        2.03969        0.06987
H          2.81147        2.04110       -0.55289
