24
Coordinates from ORCA-job ./opt_b97-3c_parallel
N          5.07737        0.58696       -0.01208
C          4.05605        0.07583        0.03593
C          2.65693       -0.24584        0.02582
C          1.66466        0.80971        0.02975
C          0.35100        0.44439        0.01385
C         -0.91982        1.11738        0.00914
C         -1.57630        0.01002       -0.00931
C         -2.96645        0.23445       -0.01466
C         -4.03622       -0.71127       -0.02377
N         -4.99931       -1.32758       -0.04381
C         -3.08297        1.63125       -0.01188
C         -1.80746        2.20958        0.01975
H         -1.52889        3.25775        0.05190
H         -4.01882        2.17906        0.06998
C         -0.36581       -0.73961       -0.00520
C         -0.02520       -2.11134       -0.01040
C          1.30549       -2.47928        0.00007
C          2.49544       -1.63753        0.01406
H          3.39541       -2.24941        0.01585
H          1.52511       -3.54285       -0.00409
H         -0.81313       -2.85779       -0.02226
N          1.81691        1.90526        0.04068
H          2.79311        2.18675       -0.04344
H          1.25170        2.72201       -0.17848
