26
Coordinates from ORCA-job ./opt_b97-3c_parallel
N         -3.16681       -2.57225        0.72650
C         -3.39128       -1.66140        0.07246
C         -2.88140       -0.72737       -0.21641
C         -1.79367        0.09323       -0.19714
C         -1.66467        1.53953       -0.18083
N         -2.76625        1.50398       -0.23039
C         -3.33828        0.55952       -0.19506
H         -4.33912        0.92867        0.08185
C         -0.24518        1.29846       -0.12225
C          0.87102        2.16522       -0.03301
N          2.11586        1.65574        0.01717
C          2.60663        0.39155        0.01769
N          3.61602        0.84506        0.06386
H          4.25077        1.63574        0.17314
H          4.21162        0.02181       -0.03316
C          1.97122       -0.92257       -0.01261
C          2.86467       -2.04354        0.02837
N          3.61512       -2.90316        0.06362
C          0.54179       -1.17778       -0.07942
C         -0.37285       -0.08214       -0.13747
N          0.00450       -2.14376       -0.10350
H         -0.96623       -2.45826       -0.13150
H          0.55728       -2.97787        0.09462
N          0.99623        3.25837        0.00763
H          0.01850        3.48311       -0.17626
H          1.37795        4.05270        0.51923
