27
Coordinates from ORCA-job ./opt_b97-3c_parallel
N         -0.69511       -3.75873        0.06856
C         -0.86315       -2.62999        0.05303
C         -1.13407       -1.22862        0.03404
C         -0.06474       -0.27593        0.00450
C          1.36157       -0.34897       -0.02107
C          1.46206        0.93501       -0.05156
C          2.81216        1.32237       -0.08989
C          3.51668        0.10929       -0.08264
C          2.62468       -0.97546       -0.03017
N          2.52299       -2.07162        0.00841
H          3.53619       -2.10611        0.12031
H          2.20751       -3.04087       -0.00298
H          4.52084        0.03732        0.33113
N          2.98621        2.41019       -0.12256
H          2.88374        3.42370       -0.15462
H          3.99068        2.23214       -0.14536
C          0.04236        1.11389       -0.02798
N         -0.74555        2.18606       -0.03913
C         -2.02601        1.67222       -0.01049
N         -2.92600        0.61001        0.02035
C         -2.50687       -0.73380        0.03645
N         -3.50425       -1.22050        0.05133
H         -3.28308       -2.21997        0.04783
H         -4.52576       -1.18555        0.04715
N         -2.64109        2.59237       -0.01426
H         -2.17381        3.50129       -0.01766
H         -3.63772        2.81253       -0.00122
