26
Coordinates from ORCA-job ./opt_b97-3c_parallel
N         -4.74754       -1.77872        0.00341
C         -3.66642       -1.40721        0.00460
C         -2.31847       -0.89898        0.00287
C         -1.49825       -2.03418        0.00239
C         -0.05967       -2.08372       -0.00087
C          0.67587       -0.93961       -0.01486
C          2.05273       -0.58412       -0.01499
C          1.77157        0.67723       -0.02211
C          2.89822        1.41653       -0.00107
C          3.89559        0.49297        0.00681
C          3.43716       -0.82671        0.00213
N          4.05160       -1.74050        0.02175
H          5.05815       -1.71239        0.17222
H          3.74731       -2.69145        0.21834
H          4.94998        0.76009        0.01501
H          2.98835        2.49988       -0.00316
C          0.40439        0.48322       -0.01491
C         -0.78446        1.16324        0.00052
C         -0.38320        2.54686        0.00262
N         -0.55685        3.67665        0.01394
C         -2.02527        0.53807        0.00554
N         -2.86978        1.25763        0.01102
H         -3.84058        0.94998        0.00838
H         -2.88065        2.27658        0.01205
H          0.43280       -3.05080        0.00254
H         -1.95253       -3.02439        0.00537
