27
Coordinates from ORCA-job ./opt_b97-3c_parallel
N          4.54059       -0.12206        0.44359
C          3.27380       -0.04083        0.01635
C          2.52999       -1.07691       -0.35677
C          1.29200       -0.67181       -0.77361
C          1.25760        0.71603       -0.73382
C          2.50085        1.06582       -0.13392
H          2.59541        1.93397        0.51178
C          0.08915        0.69482        0.09002
C         -1.03473        1.58032       -0.07291
N         -2.39721        1.29535        0.03050
C         -2.64599        0.00206        0.29733
N         -3.72342        0.23570        0.20979
H         -4.14377       -0.43570       -0.43229
H         -4.42375        0.96254        0.35897
C         -2.20073       -1.26921        0.52914
C         -0.96835       -1.60842        0.04861
C          0.11089       -0.66189        0.04443
N         -0.88553       -2.65205       -0.29846
H          0.12773       -2.77169       -0.30682
H         -1.27606       -3.59303       -0.24776
H         -2.71508       -1.91452        1.24270
N         -1.22297        2.62860       -0.35634
H         -1.67899        3.52358       -0.18413
H         -0.21995        2.80987       -0.33794
H          2.86671       -2.11316       -0.35561
H          5.15680        0.68762        0.37492
H          5.09891       -0.95013        0.23957
