24
Coordinates from ORCA-job ./opt_b97-3c_parallel
N         -4.65295       -0.04953        0.04242
C         -3.31472       -0.08468       -0.00324
C         -2.51833        1.01412       -0.01815
C         -1.25546        0.53067       -0.07501
C         -1.22520       -0.77595       -0.07414
C         -2.54875       -1.24398       -0.03254
H         -2.88327       -2.27554        0.02489
C          0.13472       -0.92198       -0.07293
C          1.12323       -1.87730       -0.04304
N          2.45219       -1.65124       -0.02500
C          2.77554       -0.30113       -0.00466
N          3.87645       -0.41161       -0.00448
H          4.35458       -1.31283        0.05095
H          4.62387        0.27376       -0.11857
N          2.54749        1.07291        0.01394
C          1.22237        1.52052        0.00260
C          0.17637        0.53392       -0.06135
N          1.05131        2.61332        0.02901
H          1.57959        3.48738        0.05925
H          0.06963        2.89643        0.04932
H          0.78272       -2.92513       -0.04217
H         -2.83225        2.05597       -0.00217
H         -5.16399        0.77968       -0.25738
H         -5.20344       -0.86756       -0.21655
