20
Coordinates from ORCA-job ./opt_b97-3c_parallel
N          2.82702        1.44866       -0.00074
C          2.13542        0.57907       -0.00036
N          1.09792        1.37065       -0.00072
C          0.14188        0.50065       -0.00045
C         -1.30017        0.73298       -0.00017
C         -1.52845       -0.55163        0.00058
C         -2.86328       -0.91081        0.00189
N         -3.23078        0.45074        0.00169
C         -2.40530        1.52982        0.00061
H         -2.96020        2.48023        0.00041
H         -3.68891       -1.63904        0.00313
C         -0.16129       -0.85194        0.00001
C          0.63753       -2.03216        0.00070
C          2.02148       -1.91777        0.00049
C          2.76168       -0.66303        0.00003
H          3.84722       -0.74403       -0.00019
H          2.60903       -2.83112        0.00069
H          0.13705       -2.99627        0.00117
H          3.82525        1.24061       -0.00023
H          2.76551        2.46729       -0.00015
