27
Coordinates from ORCA-job ./opt_b97-3c_parallel
N         -3.45097       -2.68436        0.57921
C         -3.30974       -1.66914        0.07432
C         -2.80988       -0.70758       -0.12787
C         -1.73869        0.13214       -0.11837
C         -1.62478        1.56882       -0.31907
N         -2.72495        1.51379       -0.41582
C         -3.27565        0.56664       -0.27420
H         -4.30130        0.90060       -0.04970
C         -0.20808        1.35559       -0.16622
C          0.93286        2.19517       -0.10078
N          0.87268        3.28751       -0.23678
H          1.36266        4.02965        0.25841
H         -0.08380        3.60635       -0.38018
C          2.06427        1.62745        0.39697
C          2.61477        0.45088       -0.04162
N          3.65380        0.79762       -0.20987
H          4.24008       -0.03140       -0.12710
H          4.28084        1.59193       -0.32222
C          2.04170       -0.88845       -0.02129
C          2.91474       -2.01577       -0.19432
N          3.61107       -2.91630       -0.29887
C          0.60824       -1.11868        0.14029
C         -0.32097       -0.02199        0.01869
N          0.05481       -2.07488        0.19143
H          0.76448       -2.79925        0.28947
H         -0.81570       -2.55075       -0.04028
H          2.36915        1.98014        1.38584
