23
Coordinates from ORCA-job ./opt_b97-3c_parallel
N          4.09370        0.96247        1.90710
C          3.25508        0.74695        1.16215
C          2.23234        0.47069        0.20207
C          1.50531        1.52434       -0.32052
C          0.65272        0.78856       -1.09899
C          0.86119       -0.54949       -1.03738
C          1.83782       -0.86981       -0.15078
N          2.07520       -1.91167        0.12520
H          3.03612       -1.58475        0.03071
H          2.13221       -2.89528        0.38500
C         -0.53739       -0.84906       -0.89334
C         -1.23158       -1.74789       -0.13324
C         -2.55270       -1.59907        0.16933
N         -3.41291       -0.54605        0.40706
C         -2.79076        0.66289        0.17480
N         -1.67374        1.32664       -0.29400
C         -0.74303        0.51712       -0.93474
N         -3.53868        1.39127        0.52751
H         -4.54107        1.23277        0.62387
H         -3.39661        2.39553        0.62614
H         -3.08615       -2.54303        0.36132
H         -0.71810       -2.64083        0.21681
H          2.00663        2.40309       -0.72091
