22
Coordinates from ORCA-job ./opt_b97-3c_parallel
N          4.60401        0.42982        0.86061
C          3.49349        0.46164        0.59785
C          2.10849        0.44330        0.24144
C          1.35817        1.66419        0.10781
C          0.12411        1.74207       -0.45691
C         -0.86207        0.90059       -0.06197
C         -2.12852        0.70906       -0.70753
C         -2.01968       -0.72002       -0.64507
C         -3.11810       -1.24304       -0.03447
C         -3.89804       -0.25303        0.37521
C         -3.31717        0.93785        0.06093
H         -3.38863        1.81454        0.69669
H         -4.85489       -0.37111        0.87903
H         -3.33583       -2.30308        0.07450
C         -0.75508       -0.51886       -0.00613
N          0.35796       -1.31198       -0.26527
C          1.59658       -0.81402       -0.05335
N          1.85080       -1.88786       -0.15968
H          2.86745       -1.79902       -0.15137
H          1.65984       -2.88795       -0.09733
H         -0.13393        2.62224       -1.04246
H          1.88513        2.58185        0.35235
