24
Coordinates from ORCA-job ./opt_b97-3c_parallel
N          2.73195        2.35955       -0.71879
C          2.55577        1.29126       -0.35537
C          2.24486       -0.01627        0.12226
C          1.30547       -0.23355        1.18413
C          0.99078       -1.62274        1.01985
C          1.76531       -2.17741        0.05082
C          2.51759       -1.21565       -0.47712
H          3.25318       -1.36452       -1.26546
H          1.78678       -3.22962       -0.22664
C         -0.39085       -1.25972        0.89396
C         -1.35466       -1.88843        0.04866
C         -2.57825       -1.20484       -0.26168
C         -2.77979        0.16322       -0.15499
N         -2.00701        1.26670       -0.00713
C         -0.66121        1.23036        0.35476
C         -0.08355        0.10709        1.03578
N         -0.42964        2.29352        0.14734
H          0.57619        2.32913       -0.03647
H         -0.72312        3.27091        0.15123
N         -3.74049        0.65466       -0.40171
H         -4.45662       -0.07338       -0.40070
H         -4.25368        1.52651       -0.53643
H         -3.37060       -1.84601       -0.64159
H         -1.26762       -2.95276       -0.15298
