29
Coordinates from ORCA-job ./opt_b97-3c_parallel
N          5.36325       -0.01616        0.03146
C          4.22099       -0.03617        0.01092
C          2.78929       -0.02818        0.00436
C          2.02275        1.23827        0.01480
C          0.74406        0.65141        0.00302
C          0.72063       -0.64099       -0.01105
C          2.01083       -1.20797       -0.01223
N          2.15753       -2.30186       -0.02539
H          1.76522       -3.19544       -0.31299
H          3.17045       -2.38504       -0.10296
C         -0.64532       -0.71870       -0.01860
C         -1.65709       -1.63782       -0.03308
C         -2.99486       -1.26515       -0.03317
C         -3.64003       -0.02810       -0.02275
C         -2.97714        1.26672       -0.01076
C         -1.66648        1.66164       -0.00988
C         -0.68479        0.73368       -0.00435
H         -1.38680        2.71331       -0.08139
N         -3.68647        2.11498        0.00426
H         -4.69797        2.00615        0.04666
H         -3.49501        3.11040        0.09897
H         -4.73150       -0.01632       -0.02428
N         -3.68175       -2.13174       -0.03874
H         -3.47680       -3.10944        0.15324
H         -4.68588       -2.01440        0.07629
H         -1.37619       -2.68940       -0.04245
N          2.20114        2.32691        0.02667
H          3.21082        2.39737        0.14671
H          1.80441        3.21736        0.31887
