26
Coordinates from ORCA-job ./opt_b97-3c_parallel
N          5.44563        0.72474       -0.14615
C          4.31332        0.56934       -0.14868
C          2.89270        0.36911       -0.11073
C          2.05553        1.53844        0.04129
C          0.71088        1.57710       -0.16104
C          0.10553        0.80317        0.77034
C         -1.29637        0.61892        1.05622
C         -1.18121       -0.79297        1.03520
C         -2.09102       -1.52819        0.33336
C         -2.76676       -0.44184       -0.18229
C         -3.90054       -0.70559       -1.01459
N         -4.83108       -0.90794       -1.64576
C         -2.31560        0.89839        0.10726
N         -2.56802        1.94386       -0.14219
H         -2.46337        2.94337       -0.30395
H         -3.56713        1.74747       -0.12903
H         -2.62429       -2.35069        0.80374
C          0.20793       -0.61047        0.76005
C          1.06834       -1.40765        0.04127
C          2.40266       -0.92733       -0.30483
N          2.93215       -1.85638       -0.59816
H          2.84163       -2.83051       -0.31636
H          3.92413       -1.62968       -0.54272
H          0.77925       -2.44664       -0.12457
H          0.23217        2.47331       -0.54746
H          2.57945        2.47882        0.18608
