22
Coordinates from ORCA-job ./opt_b97-3c_parallel
N          3.10658        3.43092       -0.03116
C          2.39938        2.53398       -0.05835
C          1.48980        1.41567       -0.05727
C          0.10031        1.81170       -0.07834
C         -0.93153        0.83825       -0.06452
C         -2.38348        1.00603       -0.03956
C         -2.35206       -0.39546       -0.01497
N         -3.43368       -1.24371        0.05737
C         -4.50999       -0.45427        0.09654
N         -3.37601        0.15857        0.00195
H         -5.59989       -0.31419        0.15604
C         -0.92898       -0.49130       -0.03982
C          0.02110       -1.53708       -0.00689
C          1.36573       -1.17862       -0.00082
C          1.92375       -2.51411        0.04872
N          2.39719       -3.55291        0.09967
C          1.97511        0.08994       -0.02352
N          3.07692       -0.07112       -0.00626
H          3.61799       -0.93052        0.07396
H          3.75027        0.69234       -0.04754
H         -0.37243       -2.55594        0.02038
H         -0.16817        2.86409       -0.09181
