25
Coordinates from ORCA-job ./opt_b97-3c_parallel
N         -0.39154       -2.49018        0.24918
C         -1.03571       -1.33650        0.00469
C         -0.09041       -0.30879       -0.62088
C          1.36881       -0.33264       -0.90642
C          0.93142        0.28856        0.36112
N          2.35286       -0.03425        0.29462
C          3.60422       -0.48763       -0.07129
N          2.39952       -0.49342       -0.54860
N          4.59052       -0.39728        0.41058
H          5.16642       -1.22266        0.24076
H          5.22295        0.30522        0.79411
C         -0.29046        1.03968       -0.02103
C         -1.22870        1.63497       -0.07611
N         -2.59764        1.37921       -0.11523
C         -2.94754        0.03779        0.01922
N         -4.04680        0.13120       -0.09280
H         -4.82823        0.75294        0.12968
H         -4.49728       -0.73022       -0.41249
C         -2.33255       -1.16185        0.27469
H         -2.89901       -1.97771        0.72719
N         -1.18870        2.74321       -0.13507
H         -0.38855        3.37436       -0.22471
H         -1.98095        3.37838       -0.00579
H          0.26164       -2.88237       -0.42984
H         -0.89004       -3.28210        0.66084
