23
Coordinates from ORCA-job ./opt_b97-3c_parallel
N         -4.60034       -2.30120        0.00112
C         -3.62322       -1.70832        0.00156
C         -2.38003       -0.99952        0.00032
C         -2.56516        0.38724        0.00011
C         -1.64033        1.43003       -0.00082
C         -2.19174        2.75129       -0.00123
N         -2.66374        3.79219       -0.00436
C         -0.26035        1.43514       -0.00143
C          0.39811        0.24723       -0.00314
C          1.76397       -0.16212       -0.00321
C          1.38566       -1.44043       -0.00421
C          2.43389       -2.27263       -0.00123
C          3.47601       -1.40032       -0.00113
C          3.11522       -0.04099       -0.00168
C          3.98903        1.08733        0.00028
N          4.68615        1.99292       -0.00081
H          4.51340       -1.72724        0.00095
H          2.44746       -3.35950       -0.00074
C          0.05573       -1.09179       -0.00295
C         -1.14146       -1.74604       -0.00094
H         -1.19259       -2.83074       -0.00069
H          0.30452        2.36417       -0.00123
H         -3.60430        0.71505        0.00081
