24
Coordinates from ORCA-job ./opt_b97-3c_parallel
N         -4.46461        0.05588        0.11779
C         -3.43535        0.46050        0.13123
C         -2.45605        1.41253        0.18518
C         -1.34276        0.62988        0.12237
C         -1.24584       -0.74411        0.10244
N         -2.50742       -0.44739        0.15142
C          0.13249       -0.61271        0.05443
C          1.23957       -1.44265        0.00671
N          2.54339       -1.07142       -0.03360
C          2.77788        0.30417       -0.02543
N          3.87487        0.13479       -0.06540
H          4.60714       -0.57152       -0.16690
H          4.39419        1.01358       -0.00171
C          2.29018        1.59037        0.00718
C          0.97823        1.83395        0.05597
C          0.07552        0.80698        0.07343
H          0.62307        2.86296        0.08105
H          2.97341        2.44085       -0.00561
N          1.22844       -2.55122       -0.00456
H          0.38688       -3.12562        0.06871
H          1.98543       -3.23533       -0.07834
H         -2.53364        2.33564       -0.38849
H         -4.98461       -0.82356        0.12417
H         -5.17960        0.78534        0.11820
