23
Coordinates from ORCA-job ./opt_b97-3c_parallel
N         -4.63673       -1.28796        0.65698
C         -3.57106       -0.92100        0.47326
C         -2.24539       -0.45518        0.20563
C         -1.93821        0.93078       -0.04459
C         -0.67445        1.44373       -0.03989
C          0.20167        0.84813       -0.89167
C          1.60556        1.10633       -1.06384
C          1.90658       -0.27644       -1.13563
C          2.81471       -0.55494       -0.06309
N          3.03327        0.61672        0.56465
C          2.34470        1.64657        0.03411
H          2.78347        2.15827        0.90447
N          3.32639       -1.38463        0.45397
H          2.82627       -2.27356        0.48323
H          4.31750       -1.60848        0.53610
C          0.51132       -0.54801       -0.94410
N          0.02242       -1.52874       -0.09219
C         -1.27083       -1.43614        0.29055
H         -1.40513       -2.47599        0.62632
H         -0.31383        2.03316        0.80451
N         -2.54864        1.84791       -0.14063
H         -3.47121        1.41329       -0.14994
H         -2.70597        2.85353       -0.10632
