21
Coordinates from ORCA-job ./opt_b97-3c_parallel
N          5.34588        0.15280        0.80074
C          4.22289        0.05123        0.61535
C          2.82740       -0.09666        0.34721
C          2.23964       -1.37372        0.03638
C          0.89779       -1.59179       -0.00981
C          0.22939       -0.79032       -0.87764
C         -1.17843       -0.74795       -1.16032
C         -1.21850        0.66591       -1.05610
C         -2.18968        1.25238       -0.28959
C         -2.70651        0.08963        0.23844
C         -3.74214        0.13241        1.22062
N         -4.59619        0.15677        1.97976
C         -2.12625       -1.14969       -0.19019
H         -2.32029       -2.14819        0.18857
H         -2.84012        2.01843       -0.70449
C          0.19032        0.63571       -0.80607
N          0.85690        1.45422        0.09318
C          2.08552        1.06249        0.49338
H          2.00862        2.12809        0.75642
H          0.47615       -2.53725        0.32151
H          2.92093       -2.21519       -0.04148
