16
Coordinates from ORCA-job ./opt_b97-3c_parallel
C          3.01636        0.11277       -0.02417
N          2.50507       -1.13580        0.10164
C          1.16360       -1.31658        0.13250
C          0.09292       -0.95883        0.10775
C         -1.26758       -1.04019        0.10561
C         -1.13707        0.03084        0.00545
N         -1.99361        1.02413       -0.11203
C         -3.17395        0.41452       -0.07573
N         -2.28524       -0.54660        0.03927
H         -4.27395        0.39804       -0.09800
C          0.28626        0.13431        0.00119
C          0.93705        1.40191       -0.12658
N          2.33143        1.33622       -0.13385
H          0.54938        2.42651       -0.22485
H          1.28540       -2.40527        0.23726
H          4.11341        0.20193       -0.04592
