27
Coordinates from ORCA-job ./opt_b97-3c_parallel
N          4.17088        2.07159       -0.13408
C          3.29993        1.39163        0.15995
C          2.24033        0.41408        0.10706
C          0.98894        1.03962        0.10669
C         -0.20678        0.24412        0.04433
C         -1.62146        0.44841        0.02261
C         -1.90623       -0.82647       -0.03342
C         -3.24890       -0.99999       -0.05871
C         -3.78258        0.24971       -0.01729
C         -2.78884        1.22206        0.03875
H         -2.85878        2.30335        0.09799
N         -5.09676        0.51583       -0.03593
H         -5.76836       -0.19540        0.24634
H         -5.44176        1.42115        0.27683
H         -3.78443       -1.94496       -0.11021
C         -0.49656       -1.10213       -0.01428
C          0.31545       -2.25775       -0.02923
C          1.67086       -2.15607        0.01637
C          2.47979       -1.03376        0.05821
N          3.53289       -1.38378        0.05379
H          4.23007       -0.66631       -0.13762
H          4.02937       -2.27135        0.09705
H          2.14818       -3.14105        0.02855
H         -0.16115       -3.23187       -0.07119
N          0.58495        2.07298        0.13611
H         -0.23880        2.58243       -0.17683
H          1.38886        2.67245       -0.04198
