23
Coordinates from ORCA-job ./opt_b97-3c_parallel
N          5.16647        0.36094        0.12580
C          4.02428        0.32705        0.12200
C          2.59730        0.26368        0.08288
C          1.95101        1.51490        0.13428
C          0.73648        0.91356        0.05615
C          0.69556       -0.39761       -0.00259
C          1.87978       -1.01562        0.00209
N          1.91436       -2.11639       -0.04941
H          2.93227       -2.05118       -0.05082
H          1.68977       -3.10091       -0.18227
C         -0.73096       -0.43777       -0.02819
N         -1.61958       -1.42761       -0.06600
C         -2.83931       -0.78455       -0.04029
N         -3.64725        0.33975        0.00550
C         -3.09094        1.62475        0.06463
C         -1.68294        1.97553        0.09248
C         -0.69713        0.93904        0.03876
H         -1.37922        3.01656        0.14683
H         -3.78513        2.47846        0.10028
N         -3.66293       -1.51757       -0.06507
H         -4.68020       -1.45878       -0.04022
H         -3.43369       -2.50958       -0.01986
H          2.22403        2.31689       -0.54861
