25
Coordinates from ORCA-job ./opt_b97-3c_parallel
N          4.08836        0.54499        0.04969
C          2.98189        0.82590        0.10148
C          1.59010        1.13674        0.17579
C          1.16415        2.35686       -0.29964
N         -0.01815        2.98663       -0.47291
C         -1.28160        2.42765       -0.25863
C         -1.64608        1.11551        0.21548
C         -3.02120        0.72777        0.22589
N         -4.11355        0.39176        0.21712
C         -0.69839        0.28578        0.75433
C         -0.66836       -1.12113        1.03374
C          0.69989       -1.13111        1.07695
C          1.09872       -2.15177        0.26790
C         -0.00730       -2.73542       -0.20928
C         -1.15129       -2.09522        0.20336
N         -2.03480       -2.29339       -0.42691
H         -2.28241       -3.27699       -0.33638
H         -2.87956       -1.75830       -0.22976
H          0.00904       -3.60558       -0.86500
N          2.34740       -2.57256        0.01759
H          2.52273       -3.25080       -0.72132
H          3.12461       -1.91375        0.03360
C          0.64872        0.27978        0.80708
H         -1.93754        3.22914       -0.63081
H          1.70997        3.20576       -0.73784
