26
Coordinates from ORCA-job ./opt_b97-3c_parallel
N         -4.42844       -2.91010       -0.00032
C         -3.73379       -2.00325       -0.00114
C         -2.83135       -0.89910       -0.00117
C         -1.48911       -0.69928       -0.00043
C         -1.16575        0.61442        0.00017
C         -2.20255        1.47806       -0.00010
C         -2.40257        2.88991        0.00001
N         -2.51725        4.02629       -0.00020
C         -3.30293        0.50027       -0.00087
H         -4.35217        0.78092       -0.00090
C          0.22475        0.27634        0.00086
C          1.44888        1.00228        0.00076
N          1.21940        2.08340        0.00145
H          0.39044        2.67785        0.00115
H          2.02071        2.71321        0.00343
C          2.66650        0.21755        0.00066
C          3.87727        0.98864        0.00078
N          5.01957        0.96079        0.00455
C          2.84257       -1.16933        0.00000
N          1.96360       -2.26442       -0.00041
C          0.57073       -2.26157       -0.00037
C         -0.15700       -1.04323        0.00026
H          0.00050       -3.20392       -0.00100
N          3.61111       -1.96794       -0.00039
H          4.04687       -2.89011       -0.00297
H          4.38594       -1.30107        0.00155
