21
Coordinates from ORCA-job ./opt_b97-3c_parallel
N         -2.57595       -1.99293       -0.00494
C         -1.88794       -1.13554       -0.00485
N         -2.67945       -0.00332       -0.00473
C         -1.91046        1.14469       -0.00441
N         -0.65663        1.72224       -0.00415
C          0.31630        0.74371       -0.00408
C          1.73189        0.67087       -0.00372
C          1.77898       -0.67631       -0.00396
C          3.04516       -1.14246       -0.00356
C          3.80778       -0.01681       -0.00301
C          3.05026        1.15502       -0.00317
H          3.36375        2.19381       -0.00273
H          4.89507       -0.02714       -0.00258
H          3.37614       -2.17795       -0.00353
C          0.34008       -0.71410       -0.00447
N         -0.62737       -1.69868       -0.00471
N         -2.59085        2.00792       -0.00433
H         -3.60368        1.91257       -0.00467
H         -2.37727        3.00235       -0.00420
H         -3.58869       -1.89612       -0.00492
H         -2.36443       -2.98783       -0.00485
