25
Coordinates from ORCA-job ./opt_b97-3c_parallel
N          1.97348        3.50583       -0.02754
C          2.08416        2.36815       -0.02180
C          2.18244        0.94400        0.00173
C          3.43691        0.35592        0.01849
N          3.85852       -0.92848        0.04336
C          2.85116       -1.87536        0.08325
C          1.61053       -2.44102        0.12055
C          0.81519       -1.33936        0.04416
C         -0.58831       -1.02761        0.02758
C         -0.38652        0.29594       -0.01343
C         -1.55515        1.07671       -0.02919
C         -2.53590       -0.03208        0.00731
C         -3.94763        0.19299        0.01024
N         -5.08031        0.34190        0.01366
C         -1.94836       -1.39113        0.04987
N         -2.16905       -2.47093        0.08880
H         -3.18141       -2.36433        0.04850
H         -1.97932       -3.46892        0.15577
N         -1.42187        2.17088       -0.05891
H         -2.37635        2.52565       -0.03353
H         -0.80285        2.97821       -0.00711
C          1.02136        0.10602       -0.00043
H          1.38394       -3.33471       -0.45536
H          3.63587       -2.64696        0.08466
H          4.41303        0.86407        0.01045
