19
Coordinates from ORCA-job ./opt_b97-3c_parallel
N          3.61118        0.06773       -0.00090
C          2.51413       -0.03589       -0.00156
N          2.12752        1.31444        0.04612
C          0.74922        1.58171        0.06110
C         -0.01633        0.37346        0.02230
C         -1.38901        0.29834        0.03374
C         -1.52365       -1.06239       -0.01223
C         -2.86917       -1.09976        0.01100
C         -3.33757        0.15060        0.06639
N         -2.46425        1.16519        0.08780
H         -4.41654        0.36719        0.09625
H         -3.47724       -2.00136       -0.01063
C         -0.40070       -0.71637       -0.01356
C          0.62762       -1.24167       -0.03294
N          1.94763       -1.21754       -0.03878
H          0.76419       -2.33026        0.07035
H          0.26943        2.57166        0.09888
H          4.25687       -0.69514       -0.20024
H          4.18591        0.89515        0.15529
