22
Coordinates from ORCA-job ./opt_b97-3c_parallel
N         -5.36032       -1.22491       -0.00053
C         -4.31949       -0.75347       -0.00024
C         -2.99951       -0.20742       -0.00048
C         -2.75942        1.21879        0.00366
N         -1.86045        1.87743        0.00429
C         -0.75447        1.99576        0.00232
C         -0.15197        0.69292       -0.00333
C          1.13366        0.13345       -0.00759
C          0.65296       -1.20907       -0.01089
N          1.80640       -1.91793       -0.01466
C          2.84756       -0.97548       -0.01422
C          2.45495        0.40758       -0.00911
C          3.30479        1.55758       -0.00699
N          4.44831        1.54800       -0.00851
N          3.71162       -1.66654       -0.01805
H          4.58203       -1.13189       -0.01542
H          3.98045       -2.65008       -0.01357
C         -0.59704       -0.59171       -0.00678
C         -1.94058       -1.10739       -0.00529
H         -2.10581       -2.18127       -0.00833
H         -0.39073        3.03509        0.00496
H         -3.68009        1.82298        0.00683
