23
Coordinates from ORCA-job ./opt_b97-3c_parallel
N         -3.03480       -1.92170       -0.20955
C         -2.24061       -0.83903       -0.18961
C         -2.67462        0.40155       -0.41341
C         -1.81641        1.45718       -0.35222
N         -0.64319        1.94125        0.18528
C         -0.02159        1.04264        1.03890
C          1.40502        0.91762        1.16284
C          1.33767       -0.43942        1.09541
C          2.13797       -0.75819       -0.04338
N          2.27684       -1.71764       -0.57222
H          1.84688       -2.63030       -0.43780
H          3.28478       -1.86131       -0.54754
C          2.83631        0.28520       -0.60469
C          2.23334        1.32333        0.06854
H          2.05141        2.28354       -0.40376
H          3.92025        0.25357       -0.70004
C         -0.08749       -0.32678        0.95611
C         -0.93205       -1.12524        0.10741
H         -0.53099       -2.08513       -0.20544
H         -2.15563        2.29367       -0.98032
H         -3.72498        0.58149       -0.63369
H         -4.03959       -1.82064       -0.08315
H         -2.74335       -2.77804        0.25825
