24
Coordinates from ORCA-job ./opt_b97-3c_parallel
N         -5.88517       -0.26119        0.00769
C         -4.74746       -0.16135        0.00293
C         -3.32290        0.00417       -0.00029
C         -2.76249        1.34517        0.01029
C         -1.46040        1.75018        0.00870
C         -0.43743        0.87504       -0.00108
C          0.99777        0.87494       -0.00404
C          1.05451       -0.46160       -0.01511
C          2.37359       -0.96555       -0.02146
N          2.72474       -2.01029       -0.02952
H          3.74013       -2.07431        0.03344
H          2.35824       -2.94673        0.12692
C          3.09110        0.25279       -0.01293
C          4.47356        0.61808       -0.01242
N          5.59892        0.43144        0.06223
C          2.22231        1.44609       -0.00161
H          2.49874        2.49540        0.00655
C         -0.36493       -0.56645       -0.01361
C         -1.29704       -1.56189       -0.01984
C         -2.71104       -1.25594       -0.01352
H         -3.34502       -2.14037       -0.01988
H         -0.98532       -2.60153       -0.03009
H         -1.24021        2.81485        0.01739
H         -3.51113        2.13176        0.02018
