26
Coordinates from ORCA-job ./opt_b97-3c_parallel
N         -4.13055       -1.88125        0.17740
C         -3.15526       -1.29339        0.07366
C         -1.94902       -0.51882       -0.05098
C         -2.00646        0.92916        0.09750
N         -2.86808        1.58136        0.34337
H         -3.66986        0.95318        0.35223
H         -3.23502        2.52923        0.39843
C         -1.05337        1.85846       -0.24140
C          0.24816        1.86348        0.16042
C          0.94496        0.62907        0.08127
C          2.28877        0.17480        0.13733
C          1.86895       -1.18880       -0.12528
N          2.96051       -1.36378       -0.07014
C          3.71145       -0.58461        0.14870
C          3.50631        0.75452        0.30810
H          3.88966        1.46622       -0.41863
H          4.64994       -1.11594        0.37098
C          0.50587       -0.67489       -0.16219
C         -0.76041       -1.22663       -0.25612
N         -0.59725       -2.31535       -0.39465
H          0.22775       -2.91271       -0.38563
H         -1.38024       -2.88849       -0.08500
N          0.77285        2.81416        0.35135
H          1.72932        2.94310        0.02743
H          0.34948        3.73859        0.40534
H         -1.26651        2.48433       -1.11257
