23
Coordinates from ORCA-job ./opt_b97-3c_parallel
N          3.98426        1.98985       -0.89690
C          3.10176        1.32658       -0.60593
C          2.01814        0.48129       -0.20155
C          0.93453        1.20012        0.28449
C         -0.20309        0.57431        0.89761
C         -1.53255        1.11692        0.98572
C         -2.01631       -0.22930        0.91674
C         -2.96003       -0.27723       -0.05809
C         -3.07464        0.97254       -0.51956
C         -2.24431        1.83452        0.07825
H         -2.15316        2.89776       -0.12725
H         -3.77433        1.25764       -1.30193
H         -3.52879       -1.14684       -0.37302
C         -0.72064       -0.66855        0.79268
C         -0.16422       -1.80196        0.12827
N         -0.77711       -2.67631       -0.15453
H         -1.78461       -2.52975       -0.18994
H         -0.62903       -3.66828        0.01920
C          1.18663       -1.90367       -0.02129
C          2.12354       -0.95520       -0.31664
H          3.07679       -1.30461       -0.70291
H          1.59794       -2.90976        0.05819
H          0.94797        2.28753        0.26770
