23
Coordinates from ORCA-job ./opt_b97-3c_parallel
N         -2.62407       -3.64493        0.06838
C         -2.42871       -2.52027        0.06578
C         -2.13415       -1.12481        0.06205
C         -0.81171       -0.66536        0.01894
C         -0.78402        0.67369        0.05203
C         -2.02863        1.21421        0.11706
C         -2.52887        2.55065        0.19265
N         -1.95920        3.45629       -0.20855
C         -2.85159        0.07533        0.11390
H         -3.87845        0.12574       -0.24281
C          0.65285        0.68577        0.01598
C          1.68459        1.59397        0.04601
N          3.00745        1.30395        0.04238
C          3.30716       -0.05735       -0.01654
N          4.36758        0.25578        0.02950
H          4.99493        1.03336       -0.17770
H          4.96489       -0.49597        0.37208
C          2.93241       -1.37823       -0.08435
C          1.62110       -1.76263       -0.04822
C          0.60478       -0.76198       -0.02107
H          1.32174       -2.80690       -0.05477
H          3.68230       -2.14658       -0.27086
H          1.25155        2.60579        0.08902
