23
Coordinates from ORCA-job ./opt_b97-3c_parallel
N          3.15020        2.85898        0.07259
C          2.67915        1.81836        0.05097
C          2.04503        0.53803        0.03105
C          0.81340        0.00081        0.02018
C          0.64929       -1.42384        0.00624
N          1.76133       -1.19001        0.01069
C          2.77703       -0.68963        0.02089
N          3.69128       -1.30307        0.01903
H          4.14457       -2.21529        0.01235
H          4.43185       -0.60676        0.08457
C         -0.75638       -1.04213        0.00354
C         -1.96029       -1.81044        0.00152
C         -3.19344       -1.22944        0.04071
C         -3.29303        0.13469       -0.01408
N         -2.70912        1.39479       -0.03359
C         -1.31464        1.48410        0.00620
C         -0.51397        0.29007        0.01536
H         -0.83252        2.47373        0.00433
N         -4.26578        0.65456       -0.09362
H         -4.73928        1.55271        0.00875
H         -4.99044       -0.00683       -0.37077
H         -4.04606       -1.83450        0.34895
H         -1.87676       -2.89320       -0.00924
