27
Coordinates from ORCA-job ./opt_b97-3c_parallel
N         -4.92852       -0.94248       -0.04698
C         -3.80216       -0.76143        0.00624
C         -2.37873       -0.49164        0.00751
C         -1.94960        0.85182        0.00735
N         -2.66756        1.70131        0.01204
H         -2.58261        2.71702        0.00358
H         -3.66803        1.49981        0.00488
C         -0.57820        1.36395       -0.00784
C         -0.16821        2.74581       -0.01595
N          0.16922        3.83741        0.00680
C          0.51786        0.54205       -0.01350
C          0.64861       -0.90410        0.00387
C         -0.20514       -1.94663        0.02685
C         -1.56394       -1.71392        0.00875
N         -1.93883       -2.76113       -0.00023
H         -1.68886       -3.74637       -0.06175
H         -2.95727       -2.72932       -0.01886
H          0.24985       -2.94527        0.04356
C          2.06625       -0.65627        0.00678
C          1.87981        0.61475       -0.01296
C          3.10670        1.30509       -0.00999
N          4.01303        0.19909        0.01818
C          3.35420       -1.06582        0.03279
N          4.11254       -1.86661        0.06493
H          5.13227       -1.86836        0.08007
H          3.82440       -2.82009        0.28280
H          3.49660        2.33477       -0.01711
