25
Coordinates from ORCA-job ./opt_b97-3c_parallel
N         -3.93909       -2.66427       -0.11829
C         -3.15758       -1.83335       -0.07027
C         -2.14030       -0.81779       -0.01221
C         -2.55191        0.52914       -0.00302
N         -3.60534        0.87844       -0.04276
H         -4.08254        1.74070       -0.30204
H         -4.33073        0.16707        0.04136
C         -1.81606        1.80411        0.05101
C         -0.44357        1.98432        0.09549
C          0.45835        0.88632        0.08784
C          1.91850        0.84866        0.07328
C          1.68178       -0.52106        0.04413
N          2.45368       -1.59689       -0.03839
C          3.71125       -1.04522       -0.10090
N          2.78429       -0.13882        0.01846
N          4.78450       -0.80043       -0.16313
H          5.20619       -1.70998       -0.34511
H          5.53843       -0.11607       -0.22015
C          0.25351       -0.43016        0.05705
C         -0.78470       -1.30617        0.01725
H         -0.61888       -2.37925       -0.00663
N          0.04912        2.97287        0.11953
H         -0.59758        3.75762        0.04444
H          0.98146        3.37987        0.16662
H         -2.39055        2.73669        0.04898
