25
Coordinates from ORCA-job ./opt_b97-3c_parallel
N         -2.39578       -2.56766        0.05335
C         -1.78987       -1.36991        0.02385
C         -0.45743       -1.53385       -0.16568
C          0.21973       -0.63356       -1.03794
C          1.62464       -0.37820       -1.06552
C          1.37927        1.02209       -1.13844
C          2.13296        1.62648       -0.18717
C          2.79527        0.67391        0.46803
C          2.47297       -0.57741       -0.00173
N          2.70226       -1.46644        0.60884
H          3.69536       -1.28356        0.46844
H          2.61175       -2.47696        0.70646
H          3.49922        0.86893        1.27667
H          2.21456        2.69754       -0.01442
C         -0.04034        0.76598       -1.10807
N         -0.94046        1.55157       -0.38987
C         -2.13634        1.09640        0.16966
N         -2.59488        2.06432        0.43466
H         -3.61268        2.00329        0.43934
H         -2.37016        3.04704        0.58771
C         -2.55006       -0.27923        0.31373
H         -3.52736       -0.42272        0.76775
H          0.08836       -2.39407        0.21468
H         -1.91610       -3.40637       -0.27348
H         -3.38849       -2.66642       -0.15635
