23
Coordinates from ORCA-job ./opt_b97-3c_parallel
N          3.72345        0.29945        0.02310
C          2.38855        0.31424       -0.13255
C          1.93087       -0.97319       -0.22377
C          0.63319       -1.39704        0.25270
C         -0.21751       -0.46341        0.81784
C         -1.62576       -0.50268        1.03635
C         -1.66356        0.89481        0.85945
C         -2.64198        1.17132       -0.01519
C         -3.11478        0.00423       -0.45444
N         -2.46988       -1.01930        0.12219
H         -3.89646       -0.22998       -1.19247
H         -2.97152        2.15982       -0.32399
C         -0.23206        0.95649        0.68286
C          0.55961        1.76258       -0.07827
C          1.91123        1.59231       -0.03888
H          2.56723        2.44956        0.08675
H          0.13537        2.62787       -0.58096
N          0.41061       -2.47314        0.14039
H         -0.60272       -2.43851        0.03147
H          0.71864       -3.37034       -0.22886
H          2.55834       -1.73922       -0.67771
H          4.27304        1.12742       -0.19826
H          4.26161       -0.51881       -0.25517
