24
Coordinates from ORCA-job ./opt_b97-3c_parallel
N         -0.50505       -3.34793       -0.00993
C         -0.81035       -2.24629       -0.02281
C         -1.15357       -0.85379       -0.02283
C         -0.10457        0.02623       -0.02873
C          1.32705       -0.03234       -0.02486
C          1.41664        1.23209       -0.01144
C          2.76090        1.62668        0.01640
N          2.72883        0.45008       -0.00140
C          2.54864       -0.71182       -0.01122
N          2.95802       -1.73222       -0.00432
H          3.91235       -2.03982        0.16954
H          2.35569       -2.54674        0.09880
H          3.41851        2.50790        0.05004
C          0.06189        1.47309       -0.01505
C         -0.81517        2.52432        0.00256
C         -2.22754        2.25012        0.00451
C         -2.84075        1.02308        0.00218
C         -2.49698       -0.31300       -0.00986
N         -3.35701       -1.01304       -0.00410
H         -4.36577       -0.87846       -0.02619
H         -3.19333       -2.01822       -0.02638
H         -3.92099        1.18759        0.02378
H         -2.85470        3.13621        0.01536
H         -0.48329        3.55752        0.01373
