25
Coordinates from ORCA-job ./opt_b97-3c_parallel
N          4.43937        1.48905       -0.56025
C          3.46507        0.92215       -0.37228
C          2.23410        0.23116       -0.10481
C          1.02575        0.95768        0.22920
C         -0.12839        0.22575        0.64603
C         -1.50538        0.61300        0.80759
C         -1.80981       -0.76799        0.72969
C         -2.83841       -1.12612       -0.07894
C         -2.98097        0.25221       -0.17400
C         -2.28310        1.43063        0.05202
H         -1.85210        1.99803       -0.77174
N         -3.94895        0.55445       -0.63184
H         -4.32749        1.47358       -0.40945
H         -4.72790       -0.09957       -0.58864
H         -3.63608       -1.76435        0.29733
C         -0.48024       -1.06821        0.54144
C          0.16848       -2.17893        0.09277
C          1.50784       -2.24018       -0.21480
C          2.45032       -1.13987       -0.25895
H          3.45528       -1.46969       -0.51643
H          1.91249       -3.21451       -0.47057
H         -0.40624       -3.09638        0.01313
N          0.89359        2.05341        0.30136
H          1.72490        2.61240        0.11835
H          0.11988        2.70019        0.43744
