24
Coordinates from ORCA-job ./opt_b97-3c_parallel
N         -4.77464        0.27034       -0.01646
C         -3.82596       -0.36719       -0.00150
C         -2.40970       -0.13400        0.00151
C         -1.96123        1.18792        0.00365
N         -0.62844        1.62622        0.01353
C          0.43650        0.72901        0.02755
C          1.85514        0.92063        0.02030
C          1.93413       -0.41682       -0.00383
C          3.27063       -0.80117       -0.07048
N          3.68088        0.55406       -0.07380
C          2.96107        1.70996       -0.03005
H          3.56846        2.62885       -0.04500
N          3.99703       -1.63228       -0.13101
H          5.01671       -1.57218       -0.11777
H          3.78844       -2.62986       -0.19822
C          0.53712       -0.73883        0.00814
N         -0.39363       -1.33786       -0.00334
C         -1.49866       -1.25554       -0.00165
N         -1.66774       -2.35112       -0.00550
H         -2.68119       -2.46205       -0.01212
H         -1.28733       -3.29708        0.00988
N         -2.31383        2.23946        0.00309
H         -3.30223        1.97148       -0.00356
H         -2.32213        3.26041        0.00630
