24
Coordinates from ORCA-job ./opt_b97-3c_parallel
N          3.01393        2.47100       -0.84859
C          2.69167        1.45043       -0.45062
C          2.23392        0.19702        0.05871
C          1.30427        0.09900        1.14656
C          0.89416       -1.27071        1.06054
C          1.62776       -1.93078        0.12461
C          2.43138       -1.05047       -0.46651
H          3.15009       -1.29105       -1.24695
H          1.58546       -2.99645       -0.08641
C         -0.46374       -0.81701        0.92274
C         -1.48208       -1.39976        0.09732
N         -1.53340       -2.48427       -0.09939
H         -0.60951       -2.90894       -0.02391
H         -2.18776       -3.25516       -0.23322
C         -2.65040       -0.61943       -0.22782
C         -2.73522        0.76079       -0.15124
N         -1.86911        1.79252       -0.07303
C         -0.51699        1.59943        0.17295
C         -0.05750        0.53208        1.00670
H          0.16321        2.46384        0.13195
N         -3.57993        1.44316       -0.35504
H         -3.87001        2.39943       -0.55566
H         -4.42661        0.94220       -0.08889
H         -3.51543       -1.17798       -0.58223
