21
Coordinates from ORCA-job ./opt_b97-3c_parallel
N         -4.42207       -0.61968        0.98294
C         -3.32956       -0.49886        0.67008
C         -1.97389       -0.34207        0.23879
C         -1.24094       -1.51162        0.13359
N          0.01398       -1.78762       -0.28196
C          0.74287       -0.74804       -0.84588
C          2.15659       -0.64660       -0.94329
C          1.99255        0.75848       -0.85831
C          2.88059        1.21896        0.06045
C          3.51474        0.14787        0.53878
C          3.09837       -0.98741       -0.02465
H          3.45774       -1.99043        0.19127
H          4.28458        0.19431        1.30529
H          3.03290        2.25413        0.35527
C          0.55780        0.66837       -0.71649
N         -0.33417        1.20838       -0.33600
C         -1.36318        0.93588       -0.03178
N         -1.78351        1.95921        0.02426
H         -1.48318        2.93157        0.02815
H         -2.80122        1.95948        0.04546
H         -1.46045       -2.56929        0.34158
