19
Coordinates from ORCA-job ./opt_b97-3c_parallel
N          0.99229        3.42645       -0.09420
C          1.04953        2.28714       -0.16240
C          1.07844        0.86076       -0.24388
C          2.26110        0.29166        0.19748
N          2.67571       -0.98013        0.35616
C          1.67051       -1.91182        0.22194
C          0.36136       -2.22367        0.03779
C         -0.25622       -1.29253       -0.73853
C         -1.65590       -0.94190       -0.80131
C         -1.34162        0.43040       -0.98642
C         -2.00907        1.01241        0.11954
N         -2.72946       -0.03778        0.67188
C         -2.60576       -1.24797        0.12937
H         -3.21545       -2.02415        0.61508
H         -2.10215        1.95243        0.68379
C          0.03917        0.09405       -0.88699
H          0.02902       -3.25875        0.03867
H          2.39323       -2.72124        0.40485
H          3.22376        0.64903        0.59302
