24
Coordinates from ORCA-job ./opt_b97-3c_parallel
N         -5.20866       -1.31188       -0.00671
C         -4.14760       -0.88950       -0.00551
C         -2.83853       -0.31853       -0.00392
C         -2.90327        1.07105       -0.00320
N         -2.08120        2.15318       -0.00220
C         -0.69074        2.07730       -0.00059
C         -0.04028        0.80995        0.00102
C          1.32015        0.37461        0.00445
C          0.88061       -0.88700        0.00331
C          1.99312       -1.74612        0.00520
C          1.84490       -3.16405        0.00199
N          1.69159       -4.29592        0.00582
C          3.06326       -0.84552        0.01311
C          2.67131        0.49997        0.00710
C          3.48946        1.67143        0.00670
N          3.03460        2.72212       -0.00110
H          4.10279       -1.16192       -0.03820
C         -0.44160       -0.51575        0.00016
C         -1.65430       -1.13749       -0.00225
H         -1.75553       -2.21901       -0.00249
N         -0.21562        3.07358       -0.00031
H          0.80310        3.16142       -0.00156
H         -0.57717        4.02664       -0.00291
H         -3.81556        1.68879       -0.00385
