21
Coordinates from ORCA-job ./opt_b97-3c_parallel
N         -0.80141       -2.46259        0.10311
C         -0.99546       -1.15822       -0.15119
C         -0.14424       -0.44282       -0.93034
C          1.29125       -0.54573       -1.04542
C          1.43976        0.86699       -0.95621
C          2.38689        1.11311       -0.01394
C          2.79593       -0.07213        0.43640
C          2.16562       -1.08702       -0.15437
H          2.31982       -2.14564        0.03883
H          3.55819       -0.19727        1.20165
H          2.74504        2.08879        0.30510
C          0.02605        0.95737       -0.81004
C         -0.66406        1.77904        0.04802
N         -1.92472        1.71466        0.51672
C         -2.72859        0.59672        0.28609
C         -2.28961       -0.73662       -0.05788
H         -3.09100       -1.46278       -0.16308
H         -3.81256        0.54565        0.46731
H         -0.33735        2.75310        0.44127
H          0.14473       -2.83050        0.17762
H         -1.38389       -2.94488        0.78443
