23
Coordinates from ORCA-job ./opt_b97-3c_parallel
N          5.56561        0.28880        0.14831
C          4.43773        0.10737        0.13720
C          3.02432       -0.09072        0.09093
C          2.54042       -1.41526        0.12700
C          1.24247       -1.00768        0.03732
C          1.00451        0.28436       -0.00865
C          2.10082        1.03828        0.01479
H          2.28668        2.10767       -0.00270
C         -0.40772        0.10809       -0.03530
C         -1.55349        0.95482       -0.05684
C         -1.29301        2.36111       -0.09588
N         -2.07708        3.18888       -0.00683
C         -2.85804        0.31847       -0.03865
N         -3.12362       -1.01253        0.00984
C         -2.37190       -2.13896        0.06046
C         -1.01574       -2.38114        0.08121
C         -0.17578       -1.24139        0.02206
H         -0.57941       -3.37468        0.13193
H         -2.88324       -3.11342        0.09911
N         -3.92475        0.60788       -0.04640
H         -3.76966        1.61797       -0.01771
H         -4.93562        0.47910       -0.02588
H          2.93721       -2.17532       -0.54252
