19
Coordinates from ORCA-job ./opt_b97-3c_parallel
N         -1.20638       -2.17473       -0.05299
C         -0.88464       -1.13134        0.11101
N         -2.18562       -0.85108       -0.08754
C         -2.61022        0.42122        0.00163
N         -2.14445        1.61219        0.21750
C         -0.87462        1.86418        0.30619
C          0.08619        1.31581        0.31654
C          0.87498        0.54497       -0.67079
C          1.41350       -0.71119       -0.10964
C          2.49054       -1.43986        0.19053
C          2.99909       -0.23860       -0.03445
N          2.31285        0.78980       -0.39806
H          4.07014       -0.00886        0.07491
H          3.12179       -2.26888        0.49905
C          0.19360       -0.15090        0.52130
H         -0.80100        2.84413       -0.18840
H         -3.69459        0.46976       -0.17825
H         -1.84291       -2.79351       -0.55078
H         -0.26142       -2.44216       -0.31942
