25
Coordinates from ORCA-job ./opt_b97-3c_parallel
N         -1.73900       -3.23534       -0.01460
C         -1.55539       -2.10944        0.06474
C         -1.33560       -0.70058        0.20205
C         -0.14264       -0.23875        0.72595
C          1.04650       -0.86688        1.02351
C          1.72383        0.39320        0.98984
C          2.78862        0.28507        0.14877
C          2.73637       -0.96531       -0.31978
C          1.71587       -1.67584        0.16198
H          1.47756       -2.71001       -0.07473
H          3.45639       -1.36962       -1.02766
N          3.72678        1.18704       -0.17373
H          3.82095        2.03873        0.37604
H          4.66195        0.87701       -0.43047
C          0.45271        0.98522        0.69544
C          0.17115        2.18723        0.08841
C         -1.19365        2.41520       -0.29121
C         -2.24015        1.61315        0.06065
C         -2.33069        0.27066       -0.19231
N         -3.33122        0.14670       -0.64745
H         -4.19292        0.63855       -0.42037
H         -3.49104       -0.83833       -0.44342
H         -2.95617        2.05047        0.75799
H         -1.41271        3.34991       -0.79725
H          0.93647        2.93253       -0.10452
