26
Coordinates from ORCA-job ./opt_b97-3c_parallel
N          4.06838        2.64128       -0.00034
C          3.53625        1.63113       -0.05158
C          2.85010        0.37939       -0.07805
C          1.61986       -0.14595       -0.10747
C          1.69944       -1.50764       -0.06571
C          2.88579       -2.15675       -0.01887
C          3.54942       -0.91322       -0.02645
H          4.63381       -0.88001        0.01904
H          3.08826       -2.89243        0.75536
C          0.25864       -1.47869       -0.07024
C         -0.76886       -2.44233       -0.02514
C         -2.06797       -2.06607       -0.14050
C         -2.68135       -0.83954        0.03913
C         -2.18175        0.54389        0.00426
C         -3.11340        1.63757        0.11121
N         -3.87552        2.48601        0.19320
C         -0.76821        0.89576       -0.10717
C          0.25404       -0.11524       -0.12031
N         -0.26985        1.88500       -0.13343
H          0.67297        2.26981       -0.11119
H         -0.90935        2.66038        0.03269
N         -3.76047       -1.06048        0.18489
H         -4.39269       -1.85813        0.15951
H         -4.34569       -0.22719        0.14370
H         -2.68771       -2.90262       -0.47864
H         -0.50155       -3.49355        0.02261
