24
Coordinates from ORCA-job ./opt_b97-3c_parallel
N          4.56358        0.96781       -0.00108
C          3.59499        0.36024       -0.00096
C          2.16337        0.20503       -0.00101
C          1.66573        1.51308       -0.00157
N          0.35697        1.97825       -0.00177
C         -0.67370        1.07472       -0.00165
C         -2.10086        1.12923        0.00011
C         -2.18062       -0.13484        0.00092
C         -3.51971       -0.54568        0.00385
N         -3.47626        0.63072        0.00299
C         -3.32880        1.79793        0.00248
H         -4.02736        2.64845        0.00398
H         -4.19997       -1.41159        0.00597
C         -0.81741       -0.36544       -0.00052
C          0.09526       -1.38565       -0.00005
C         -0.68509       -2.59200        0.00098
N         -0.77579       -3.73036        0.00222
C          1.51886       -1.10968        0.00005
N          2.11961       -2.03989        0.00026
H          3.13187       -2.15941        0.00033
H          1.72249       -2.98000        0.00099
N          1.78710        2.61783       -0.00198
H          2.80453        2.52098       -0.00185
H          1.61025        3.62305       -0.00073
