24
Coordinates from ORCA-job ./opt_b97-3c_parallel
N         -4.12183       -0.59437       -0.07105
C         -3.07018       -0.25743       -0.02382
N         -2.49469       -1.53762       -0.02945
C         -1.14249       -1.89181       -0.00988
C         -0.09953       -1.00122        0.00996
C          1.27574       -1.07571        0.00028
C          1.31318        0.30040        0.03535
C          2.41177        1.10541        0.04886
C          3.42124        0.18975       -0.03766
N          2.53512       -0.75640        0.00087
N          4.50139       -0.04314       -0.05966
H          5.04588       -0.89449        0.08668
H          5.18902        0.69367       -0.22209
H          2.43695        2.02832       -0.52863
C         -0.11878        0.40350        0.04958
C         -1.09939        1.33291        0.08771
N         -0.73632        2.62320        0.01759
H          0.15160        2.94496        0.39961
H         -1.42088        3.36397        0.17947
C         -2.43409        1.04640        0.02722
H         -3.13488        1.87826        0.02083
H         -0.98187       -2.98124       -0.03206
H         -4.78111        0.15370       -0.29019
H         -4.69404       -1.43319        0.03496
