22
Coordinates from ORCA-job ./opt_b97-3c_parallel
N         -5.25077       -0.11058        0.05435
C         -4.11755        0.01795        0.09852
C         -2.69360        0.15951        0.11101
C         -2.13749        1.45310        0.19812
C         -0.86026        0.99977        0.03537
C         -0.69186       -0.30243       -0.01478
C         -1.81945       -1.00808        0.02361
H         -2.04968       -2.06753       -0.02709
C          0.71785       -0.17528       -0.06205
C          1.86844       -0.99763       -0.05280
C          1.62559       -2.40576       -0.02554
N          1.57397       -3.54745        0.00068
C          3.10667       -0.42774       -0.01614
C          3.54105        0.87736       -0.01090
C          2.79712        2.12907        0.02519
C          1.41632        2.26080        0.04810
C          0.57264        1.18595       -0.00196
H          0.98850        3.25822        0.08689
H          3.40762        3.02675        0.03735
H          4.61673        1.02783       -0.01953
H          3.92101       -1.14912        0.01420
H         -2.52805        2.29273       -0.37150
