23
Coordinates from ORCA-job ./opt_b97-3c_parallel
N          3.47219        1.68540       -0.04805
C          2.53408        1.09198       -0.03310
N          2.99250       -0.18894       -0.02949
C          2.05713       -1.22350       -0.00901
N          0.75680       -1.70094        0.01302
C         -0.10778       -0.63049        0.01317
C         -1.52471       -0.37945        0.03611
C         -1.32648        0.94566        0.02203
C         -2.55611        1.64349        0.04161
N         -3.49325        0.55492        0.06810
C         -2.85014       -0.66624        0.06465
N         -3.64903       -1.43246        0.08871
H         -4.63693       -1.17345        0.03431
H         -3.65684       -2.44988        0.18075
H         -3.10100        2.60192        0.04729
C          0.09881        0.80437       -0.00090
C          1.25837        1.65408       -0.02036
H          1.09573        2.72997       -0.02406
N          2.56831       -2.20567       -0.00678
H          3.57765       -2.35967        0.02797
H          2.17109       -3.14717       -0.03982
H          3.42988        2.70580       -0.10411
H          4.47544        1.48686       -0.00661
