22
Coordinates from ORCA-job ./opt_b97-3c_parallel
N         -1.47315       -3.27665        0.00387
C         -1.64781       -2.14745        0.00326
C         -1.76611       -0.72482        0.00240
C         -0.53991       -0.09145        0.00100
C          0.78684       -0.45828        0.00018
C          1.18530        0.81940       -0.00097
C          2.59528        0.92692       -0.00223
N          2.97904       -0.45328       -0.00169
C          1.87039       -1.27101        0.00002
N          1.94818       -2.37462        0.00046
H          2.78850       -2.95622       -0.00088
H          1.16666       -3.03546        0.00215
N          3.24942        1.81824       -0.00351
H          4.26553        1.92199       -0.00552
H          2.87936        2.77082       -0.00334
C         -0.09308        1.30390       -0.00023
N         -0.76995        2.45176       -0.00042
C         -2.11224        2.15337        0.00087
N         -3.22106        1.33838        0.00232
C         -3.04160       -0.04137        0.00307
H         -4.07418       -0.42310        0.00423
H         -2.78010        3.02958        0.00085
