26
Coordinates from ORCA-job ./opt_b97-3c_parallel
N         -4.81543        0.09815       -0.02067
C         -3.67234        0.06615       -0.01343
C         -2.22500       -0.01510       -0.00761
C         -1.60757        1.25675       -0.00514
N         -2.14030        2.23795       -0.00710
H         -3.15798        2.18670       -0.00200
H         -1.90374        3.22920       -0.00269
C         -0.26025        1.63664       -0.00085
C          0.45500        2.89658        0.00125
N          0.97245        3.91644        0.00317
C          0.76399        0.72184        0.00423
C          2.22308        0.72400        0.00673
C          2.15928       -0.62331        0.00643
C          3.43579       -1.15749        0.00309
N          3.98257        0.10068        0.00126
C          3.43052        1.34651        0.00392
H          4.07235        2.24022        0.00235
H          4.00577       -2.09832       -0.00098
C          0.74992       -0.70764        0.00471
C         -0.20312       -1.68144       -0.00066
C          0.37145       -3.00189        0.00033
N          0.79461       -4.06377        0.00189
C         -1.62205       -1.36008       -0.00585
N         -2.26242       -2.26854       -0.00890
H         -3.27940       -2.21012       -0.00054
H         -2.02339       -3.25874       -0.00017
