25
Coordinates from ORCA-job ./opt_b97-3c_parallel
N         -2.57702       -3.25759        0.02294
C         -1.59267       -2.67711        0.00716
C         -0.38463       -1.91549       -0.00826
C         -0.44667       -0.54937       -0.03376
C         -1.46256        0.45925       -0.02981
C         -0.59658        1.38417       -0.02658
C         -1.22039        2.63801        0.00595
N         -2.05875        1.81216       -0.00255
C         -2.79129        0.89183        0.00103
N         -3.82082        0.50784        0.02823
H         -4.68330        1.02636        0.18002
H         -4.04968       -0.48230        0.08984
H         -0.96887        3.70834        0.03967
C          0.50360        0.55569       -0.03111
C          1.87336        0.62354       -0.00709
C          2.44280        1.94135        0.00747
N          2.92725        2.97672        0.01589
C          2.63039       -0.61419        0.00556
N          3.73808       -0.56849        0.02968
H          4.46726       -1.27882        0.04968
H          4.20957        0.33476        0.01965
C          2.12648       -1.89911       -0.01297
C          0.91214       -2.53473        0.00793
H          0.90162       -3.62056        0.03055
H          2.90253       -2.66843       -0.04264
