27
Coordinates from ORCA-job ./opt_b97-3c_parallel
N          5.71308        0.81577        0.02454
C          4.59476        0.58368        0.01786
C          3.19877        0.25175        0.00938
C          2.51195        1.46102        0.01927
N          1.22577        1.86970        0.00374
C          0.31009        0.85071       -0.06178
C         -1.10738        0.70455       -0.05347
C         -0.99683       -0.58803       -0.05857
C         -2.25244       -1.22874       -0.01806
C         -3.10302       -0.09815        0.00148
C         -4.52991       -0.19444        0.03813
N         -5.66990       -0.27859        0.03597
C         -2.41719        1.21432       -0.00590
N         -2.62841        2.29626        0.01457
H         -3.63208        2.43288        0.12198
H         -2.18724        3.20546        0.13685
N         -2.30782       -2.33123       -0.01134
H         -3.32361       -2.40950       -0.04148
H         -1.93680       -3.25135       -0.23927
C          0.37853       -0.59384       -0.07143
C          1.35765       -1.52237        0.00228
C          2.66615       -1.10672       -0.00092
N          3.32715       -1.99469       -0.00542
H          3.32123       -3.01150        0.05114
H          4.30356       -1.70603        0.02444
H          1.07674       -2.57720        0.03009
H          2.77466        2.53027        0.03467
