22
Coordinates from ORCA-job ./opt_b97-3c_parallel
N          4.65037        1.74448        0.09450
C          3.69429        1.11965        0.08234
C          2.47275        0.37438        0.06272
C          1.22104        1.09185        0.11319
C          0.01852        0.34619        0.09826
C         -1.37846        0.66531        0.11199
C         -1.64633       -0.62747        0.03049
N         -2.97498       -0.85746       -0.01925
C         -3.25333        0.48035        0.04122
C         -2.38191        1.57828        0.11716
H         -2.40785        2.37640       -0.62241
N         -4.36036        0.54411        0.02046
H         -4.92411        1.39250       -0.03456
H         -5.02451       -0.22986        0.05323
C         -0.26327       -0.98313        0.02434
C          0.45361       -2.13260       -0.05738
C          1.83212       -2.14595       -0.06572
C          2.73204       -1.00086       -0.00919
H          3.77753       -1.30345       -0.03436
H          2.31614       -3.11646       -0.12501
H         -0.07601       -3.07873       -0.11530
H          1.20050        2.17658        0.16379
