24
Coordinates from ORCA-job ./opt_b97-3c_parallel
N          5.08091        0.88966        0.02391
C          3.94972        0.72779        0.00944
C          2.53388        0.48765        0.00314
C          1.92964       -0.77414       -0.00534
N          2.55632       -1.69102       -0.00724
H          3.57234       -1.62882        0.03506
H          2.32159       -2.68243        0.00666
C          0.55721       -1.03284       -0.01059
C         -0.18185       -2.26818       -0.01814
N         -0.73985       -3.26615       -0.02056
C         -0.39985       -0.03373       -0.00687
C         -1.81666        0.06844       -0.00367
C         -1.71828        1.32161        0.00612
C         -3.00327        1.88498        0.01797
N         -3.13318        0.71730        0.00797
C         -3.11215       -0.45589       -0.00119
N         -3.74960       -1.35129       -0.00340
H         -3.28694       -2.25587        0.06634
H         -4.73954       -1.50388        0.17576
H         -3.43270        2.89756        0.03263
C         -0.33723        1.45031        0.00412
N          0.62743        1.99138        0.00789
C          1.67654        1.64232        0.00783
H          2.11331        2.65277        0.01457
