24
Coordinates from ORCA-job ./opt_b97-3c_parallel
N         -5.11492       -0.92541        0.02743
C         -3.98390       -0.76146        0.00677
C         -2.57049       -0.51952       -0.00212
C         -1.70015       -1.66237       -0.00282
N         -0.66096       -2.03584       -0.00690
C          0.26247       -1.43621       -0.00478
C          1.70285       -1.34411        0.00662
C          1.76500       -0.03195        0.00262
C          3.08040        0.46495        0.01989
N          3.74989       -0.74214        0.03236
C          2.99648       -1.90191        0.02637
H          3.37107       -2.93682        0.03908
N          3.68408        1.38808        0.03028
H          4.67788        1.60480        0.09655
H          3.19461        2.28549        0.02319
C          0.35043        0.04657       -0.00930
C         -0.58729        1.06703       -0.01168
C          0.11733        2.32337       -0.01447
N          0.97735        3.07736        0.01729
C         -2.01914        0.76667       -0.00803
N         -2.61795        1.70076       -0.00749
H         -2.47493        2.70963       -0.00049
H         -3.62722        1.55516        0.01953
H         -2.16007       -2.66314        0.00357
