25
Coordinates from ORCA-job ./opt_b97-3c_parallel
N         -4.65721        0.04321       -1.96614
C         -3.82916       -0.03560       -1.18381
C         -2.80830       -0.16941       -0.19438
C         -2.28593       -1.44898        0.17791
C         -1.29011       -1.08435        1.11156
C         -1.22963        0.27407        1.10686
C         -2.19735        0.92329        0.37985
H         -2.78827        1.72267        0.82331
C          0.10292        0.23866        0.77244
C          0.99817        1.12416        0.19794
C          0.61969        2.50598        0.13896
N          1.16943        3.47854       -0.10347
C          2.36189        0.77423       -0.18531
N          2.89486       -0.47633       -0.22207
C          2.05230       -1.57612       -0.12154
C          0.76641       -2.02384       -0.05106
C          0.10980       -1.19410        0.80015
H          0.49667       -3.07700       -0.13096
N          2.89271       -2.29847       -0.17638
H          3.90823       -2.41006       -0.17442
H          2.53201       -3.25424       -0.17286
N          3.30591        1.24803       -0.52266
H          2.86349        2.16871       -0.59538
H          4.30839        1.43966       -0.56566
H         -2.49815       -2.42078       -0.25722
