22
Coordinates from ORCA-job ./opt_b97-3c_parallel
N         -5.44724        0.05403        0.00120
C         -4.30507        0.04060        0.00094
C         -2.87790       -0.01542        0.00129
C         -2.07297        1.17509        0.00461
N         -1.00383        1.45842        0.00370
C         -0.08547        0.84689        0.00479
C          1.35260        0.69648        0.00433
C          1.37043       -0.61956        0.00614
C          2.66398       -1.16669        0.00623
N          3.37664        0.01658        0.00237
C          2.66673        1.20423        0.00027
N          3.21500        2.15873       -0.00479
H          4.19547        2.43385       -0.03684
H          2.67152        3.02103       -0.03297
N          3.15272       -2.15658        0.00851
H          2.64335       -3.04022        0.03086
H          4.14321       -2.39814        0.02889
C         -0.03696       -0.63817        0.00594
N         -0.97450       -1.65511        0.00109
C         -2.26792       -1.26023       -0.00165
H         -2.87462       -2.17905       -0.00586
H         -2.65646        2.10894        0.00944
