23
Coordinates from ORCA-job ./opt_b97-3c_parallel
N         -4.98364       -1.02603       -0.32329
C         -3.85291       -0.88224       -0.24860
C         -2.43844       -0.71513       -0.11790
C         -2.02032        0.59291       -0.34233
C         -0.70993        1.12443       -0.01553
C         -0.59247        2.51079       -0.35287
N          0.07876        3.43374       -0.28916
C          0.21594        0.41885        0.72451
C          1.61002        0.66958        0.94479
C          1.76618       -0.72775        1.09281
C          2.74802       -1.03089        0.11509
N          3.09965        0.22569       -0.36507
C          2.48500        1.31028        0.11421
H          2.64503        2.36625       -0.15371
N          3.28837       -1.74630       -0.52928
H          4.29399       -1.60857       -0.62661
H          3.13494       -2.75308       -0.58309
C          0.36747       -0.98429        0.86563
C         -0.23459       -1.86963        0.03669
C         -1.59115       -1.85555        0.14148
H         -2.10767       -2.79992        0.28910
H          0.27975       -2.76521       -0.30398
H         -2.75182        1.30686       -0.72149
