25
Coordinates from ORCA-job ./opt_b97-3c_parallel
N          3.54527        1.57178       -0.36648
C          2.72358        0.55889       -0.04597
C          3.07895       -0.72631       -0.09813
C          2.20331       -1.71570        0.24136
N          0.88626       -2.09603        0.38473
C          0.01227       -1.07574        0.05909
C         -1.28770       -0.88637        0.65391
C         -0.96646        0.51481        0.80871
C         -1.88322        1.28268        0.16462
N         -1.95605        2.61987        0.07490
H         -1.45451        3.20611        0.73886
H         -2.84295        3.07109       -0.14129
C         -2.75123        0.43909       -0.38457
C         -2.41384       -0.86621       -0.14064
N         -2.89857       -1.73470       -0.61836
H         -2.26605       -2.50436       -0.40419
H         -3.84182       -2.06255       -0.41856
H         -3.61412        0.74734       -0.97244
C          0.25684        0.24432        0.26297
C          1.48301        0.98705        0.35946
H          1.39210        1.98616        0.77726
H          2.58874       -2.69989        0.54574
H          4.08143       -0.99882       -0.42048
H          4.40540        1.39399       -0.88115
H          3.16602        2.46389       -0.67765
