21
Coordinates from ORCA-job ./opt_b97-3c_parallel
N          4.55983        1.65118       -0.02830
C          3.57844        1.06588       -0.05319
C          2.35110        0.33089       -0.04567
C          1.23720        1.16211       -0.05348
C         -0.04762        0.68751       -0.04000
C         -1.32996        1.40149       -0.02652
C         -1.85946        0.10416       -0.00707
N         -3.19060       -0.24732        0.03170
C         -3.86485        0.90511        0.04519
N         -2.57762        1.01397       -0.00095
H         -4.89117        1.30036        0.07689
C         -0.58484       -0.53465       -0.02140
C         -0.03604       -1.84120       -0.00477
N         -0.75679       -2.67612        0.01748
H         -1.73946       -2.41029       -0.03581
H         -0.73018       -3.64971        0.31427
C          1.31620       -2.01725       -0.01296
C          2.35946       -1.12459       -0.02444
H          3.35806       -1.55124       -0.01706
H          1.64382       -3.05643       -0.00377
H          1.37313        2.24080       -0.06535
