23
Coordinates from ORCA-job ./opt_b97-3c_parallel
N         -4.90060        0.03933       -0.24272
C         -3.86283        0.26930       -0.66328
C         -2.48619        0.17281       -0.29198
C         -1.83353        1.43443       -0.09651
N         -0.85439        1.87847        0.14348
C          0.02492        1.38073        0.58463
C          1.43684        1.54961        0.85374
C          1.68405        0.15922        0.98653
C          2.74394       -0.15476        0.19029
C          3.12951        1.00518       -0.35178
C          2.38199        2.04472        0.01886
H          2.50211        3.08022       -0.28921
H          3.97503        1.09683       -1.02999
N          3.35362       -1.33047       -0.01986
H          3.99273       -1.44727       -0.80357
H          2.84337       -2.20352        0.10775
C          0.29539       -0.01308        0.74244
C         -0.42225       -1.16473        0.25155
C          0.17809       -2.46061        0.28659
N          0.66832       -3.49305        0.28377
C         -1.79969       -1.02658       -0.18517
H         -2.31193       -1.95188       -0.43359
H         -2.30067        2.42754       -0.18555
