28
Coordinates from ORCA-job ./opt_b97-3c_parallel
N         -0.43942       -3.64410        0.21698
C         -0.68155       -2.56377       -0.06403
C         -0.99500       -1.20293       -0.37555
C         -0.06908       -0.39985       -1.02325
C          1.28940       -0.46379       -1.21501
C          1.42618        0.87558       -1.33987
C          2.35604        1.22916       -0.31550
N          2.54273        2.21237        0.15470
H          2.39259        3.21423        0.26512
H          3.55404        2.08121        0.17287
C          2.98117        0.16356        0.29384
C          2.19747       -0.86818       -0.18350
N          2.30125       -1.65490        0.58433
H          3.28237       -1.91842        0.66612
H          1.76842       -2.52319        0.62506
H          4.06984        0.08716        0.29868
C          0.00147        1.03529       -1.16766
N         -0.56515        1.91505       -0.31518
C         -1.87892        1.59920       -0.02740
C         -2.71139        0.59587       -0.43237
C         -2.30309       -0.66254       -0.08608
N         -3.22474       -1.03762        0.39705
H         -4.23490       -1.17305        0.35643
H         -2.83678       -1.92330        0.72318
H         -3.34040        0.74575       -1.31113
N         -2.17195        2.42339        0.64683
H         -1.85508        3.38566        0.76307
H         -2.97173        2.31032        1.26977
