26
Coordinates from ORCA-job ./opt_b97-3c_parallel
N          3.75581        2.01274       -0.32725
C          2.62695        1.83967       -0.28386
C          2.01534        0.69759        0.32680
C          0.89682        0.49656        1.18885
C          0.69383       -0.83472        1.33530
N          1.59101       -1.54388        0.56152
C          2.45105       -0.58406        0.03010
N          3.16609       -1.23161       -0.50982
H          3.92766       -0.57248       -0.68208
H          3.59535       -2.15519       -0.46141
C         -0.67743       -0.59324        0.98512
C         -1.48358       -1.33917        0.04913
C         -2.75013       -0.75803       -0.36326
C         -3.10917        0.57145       -0.17289
C         -2.16600        1.65627       -0.01979
C         -0.81392        1.57870       -0.16890
C         -0.40965        0.80841        0.87334
H         -0.24955        2.45454       -0.48078
H         -2.57984        2.65554        0.10362
N         -4.16882        0.86551       -0.25661
H         -4.64321        1.76360       -0.33909
H         -4.85913        0.20972        0.10683
H         -3.49151       -1.45526       -0.75523
N         -1.33538       -2.42024       -0.13097
H         -0.78829       -3.27437       -0.22245
H         -2.30917       -2.70853       -0.22274
