25
Coordinates from ORCA-job ./opt_b97-3c_parallel
N         -0.60880       -3.51291        0.03876
C         -0.08745       -2.49749        0.02059
C          0.61975       -1.25696       -0.00293
C         -0.14597       -0.11300       -0.03676
C         -1.53229        0.22205       -0.01648
C         -1.32151        1.55764       -0.03379
C         -2.47657        2.23487        0.01989
C         -3.39590        1.23769        0.05886
C         -2.86065       -0.05904        0.04405
N         -3.21416       -1.09992        0.09595
H         -3.17374       -2.11743        0.03690
H         -4.20426       -0.86440        0.17319
H         -4.46648        1.43047        0.10023
H         -2.63985        3.31038        0.01909
C          0.09219        1.31258       -0.05167
N          1.19459        2.06470       -0.01964
C          2.27286        1.20452       -0.00819
N          2.85908       -0.05524       -0.00280
C          2.07319       -1.21766        0.00057
N          2.87485       -1.98516        0.01489
H          2.36474       -2.87247        0.01207
H          3.86014       -2.25646        0.02835
N          3.10697        1.93233        0.00164
H          4.12449        1.85048       -0.00323
H          2.92789        2.93858        0.00424
