21
Coordinates from ORCA-job ./opt_b97-3c_parallel
N         -0.13950       -3.51967       -0.32994
C         -0.54075       -2.45104       -0.27655
C         -1.00477       -1.10181       -0.20357
C         -0.17567       -0.01809       -0.67064
C          1.21725        0.00271       -1.00159
C          1.09984        1.43373       -0.96485
C          2.01916        1.93439       -0.10492
C          2.66667        0.89975        0.42349
C          2.18484       -0.29118       -0.06447
N          2.54690       -1.27489        0.27666
H          2.12588       -2.17475        0.04934
H          3.55419       -1.38803        0.17947
H          3.46719        0.99104        1.15516
H          2.19463        2.98561        0.10953
C         -0.23471        1.34008       -0.63471
N         -1.12209        2.22313       -0.17036
C         -2.23099        1.52419        0.23336
N         -2.95862        0.38537        0.48293
C         -2.34816       -0.84845        0.27881
H         -3.11260       -1.56489        0.61458
H         -3.01916        2.21561        0.56800
