24
Coordinates from ORCA-job ./opt_b97-3c_parallel
N         -4.42039       -2.40421       -0.65808
C         -3.45747       -1.82973       -0.44019
C         -2.26466       -1.10241       -0.12510
C         -1.07928       -1.83402        0.23863
C          0.06195       -1.14577        0.72846
C          1.39056       -1.59741        0.97886
C          1.77721       -0.21472        0.96382
C          2.74817       -0.24529       -0.06979
C          3.60719        0.86797       -0.31801
N          4.28690        1.77154       -0.48335
C          2.93971       -1.51015       -0.55219
N          2.05701       -2.33131        0.01170
H          3.66480       -1.72944       -1.35052
C          0.46438        0.13200        0.68369
C         -0.17053        1.27049        0.25730
N          0.50772        2.14658        0.28680
H          1.49613        2.35721        0.15813
H          0.00290        3.01650        0.12180
C         -1.50627        1.35911       -0.10355
C         -2.19616        2.57418       -0.44583
N         -2.59613        3.64416       -0.41094
C         -2.47182        0.27279       -0.23846
H         -3.48040        0.57942       -0.52029
H         -1.08813       -2.92003        0.23913
