30
Coordinates from ORCA-job ./opt_b97-3c_parallel
N         -5.65918       -0.61689       -0.02202
C         -4.51918       -0.50789       -0.01714
C         -3.08851       -0.33173       -0.00615
C         -2.23479       -1.49818        0.00662
N         -1.15191       -1.72778        0.01563
C         -0.18843       -1.17917        0.02466
C          1.23487       -1.02539        0.02932
C          1.30818        0.30838        0.03064
C          2.49654        0.96300        0.02045
C          3.17105       -0.27718        0.00793
C          4.60017       -0.17568       -0.02615
N          5.74106       -0.12497       -0.06505
C          2.50614       -1.59193        0.01569
N          2.82616       -2.64731        0.00378
H          2.43054       -3.56806        0.18301
H          3.83902       -2.74146        0.07824
N          2.88541        2.24513        0.13222
H          3.84091        2.50673       -0.10553
H          2.26665        3.00322       -0.15101
C         -0.12804        0.28958        0.02206
C         -1.10470        1.27391        0.00520
C         -0.45150        2.55652        0.00459
N         -0.33244        3.69268       -0.05897
C         -2.53570        0.95600       -0.00840
N         -3.14992        1.88251       -0.02051
H         -2.96215        2.88374       -0.02474
H         -4.16320        1.77442       -0.03732
N         -2.52953       -2.56869        0.00990
H         -3.54610       -2.51528        0.00145
H         -2.28979       -3.55793        0.00275
