27
Coordinates from ORCA-job ./opt_b97-3c_parallel
N          0.86588        3.92169        0.07461
C          1.25494        2.84884        0.04481
C          1.70521        1.49392        0.01423
C          0.80059        0.45777       -0.02230
C         -0.63234        0.36478       -0.03062
C         -0.60512       -0.92885       -0.04661
C         -1.87001       -1.53956       -0.04639
N         -1.83663       -2.64255       -0.05647
H         -2.85313       -2.55917       -0.01307
H         -1.64220       -3.63506       -0.18111
C         -2.66675       -0.36941       -0.03241
C         -4.09548       -0.32627       -0.02665
N         -5.17537       -0.68308        0.08210
C         -1.92725        0.91857       -0.01550
N         -1.99939        2.01782        0.00410
H         -1.65899        2.97839        0.02924
H         -3.01584        2.06882        0.06374
C          0.82122       -0.93831       -0.04014
N          1.81030       -1.90021       -0.01249
C          3.06236       -1.31333        0.00059
C          3.65992       -0.08100       -0.01977
C          3.11356        1.17580        0.02234
H          3.78402        2.03051        0.05294
H          4.74725       -0.08547       -0.08821
N          3.54821       -2.30699        0.03149
H          4.56535       -2.28077        0.10186
H          3.30045       -3.29690        0.02254
