25
Coordinates from ORCA-job ./opt_b97-3c_parallel
N         -5.01805       -0.65222       -0.14576
C         -3.99619       -0.23403        0.14807
C         -2.57848       -0.07036        0.06456
C         -1.68268       -1.24666       -0.02318
C         -0.51416       -0.56372       -0.07204
C         -0.58123        0.73871       -0.01459
C         -1.86844        1.14999        0.07825
N         -1.98624        2.24586        0.13926
H         -2.98903        2.08937        0.03931
H         -1.86756        3.25213        0.24773
C          0.78089        0.93904       -0.04574
C          1.60771        2.01296        0.09655
C          2.90208        1.57492        0.07566
N          3.80087        0.51974        0.04107
C          3.16902       -0.71204       -0.00907
N          1.96741       -1.39646       -0.06080
C          0.90980       -0.50946       -0.10377
N          3.99440       -1.44222       -0.00349
H          5.00306       -1.29700       -0.01889
H          3.84971       -2.45076        0.02022
H          3.59560        2.42974        0.10837
H          1.33414        2.98746       -0.30201
N         -1.54306       -2.34038       -0.05906
H         -2.56268       -2.33258       -0.07389
H         -1.26235       -3.31587       -0.14364
