23
Coordinates from ORCA-job ./opt_b97-3c_parallel
N          5.02705        0.25626       -0.06075
C          3.88407        0.26305       -0.06445
C          2.45299        0.25218       -0.03387
C          1.65795       -0.95195       -0.00523
N          0.56549       -1.13899        0.01760
C         -0.36828       -0.54138        0.06710
C         -1.79870       -0.35231        0.07338
C         -1.79858        0.97851        0.11785
C         -3.02785        1.49856        0.02013
C         -3.79725        0.38578       -0.03693
C         -3.07605       -0.81732       -0.01702
N         -3.52876       -1.81598       -0.11764
H         -2.96894       -2.66572       -0.16096
H         -4.50153       -2.09419       -0.23459
H         -4.88308        0.42649       -0.09791
H         -3.33062        2.54236        0.02578
C         -0.38522        0.93433        0.08860
N          0.57851        1.92574        0.00550
C          1.86004        1.50399       -0.03639
H          2.29813        2.51289       -0.06307
N          1.98597       -2.01042       -0.00303
H          3.00324       -1.97609        0.00755
H          1.72014       -2.99217        0.01981
