24
Coordinates from ORCA-job ./opt_b97-3c_parallel
N          5.01235        0.88123       -0.00033
C          3.89070        0.66087       -0.00068
C          2.47279        0.42267       -0.00050
C          1.62619        1.60743        0.00266
C          0.26859        1.72660        0.00335
C         -0.54341        0.65546        0.00688
C         -1.94424        0.33566        0.00293
C         -1.73451       -0.94913       -0.00088
C         -2.92618       -1.68225       -0.01020
N         -3.18425       -0.53288       -0.00619
C         -3.31120        0.63690       -0.00314
N         -4.02512        1.47309       -0.00497
H         -3.73120        2.41276       -0.26186
H         -5.03544        1.43095       -0.11888
H         -3.26734       -2.72795       -0.01942
C         -0.31726       -0.76929        0.00203
C          0.79453       -1.55830       -0.00449
C          2.11879       -0.94157       -0.00413
N          2.74949       -1.85639       -0.00772
H          3.71812       -1.54196       -0.00296
H          2.77627       -2.87410        0.00142
H          0.64543       -2.64065       -0.00922
H         -0.17361        2.71969        0.01167
H          2.18159        2.54081        0.00427
