27
Coordinates from ORCA-job ./opt_b97-3c_parallel
N         -1.42399       -3.37426       -0.69341
C         -1.50446       -2.32994       -0.23913
C         -1.51617       -1.02500        0.34552
C         -0.54723       -0.63628        1.32302
C         -0.52664        0.79021        1.26294
C         -1.48759        1.08605        0.24228
C         -1.64502        2.39590       -0.30696
N         -1.73313        3.44772       -0.74526
C         -2.23942        0.01563       -0.18547
N         -3.57001       -0.04547       -0.35632
H         -4.07973        0.76042       -0.71695
H         -4.00660       -0.88513       -0.73520
C          0.87215        0.72538        0.92226
C          1.70099        1.62534        0.18115
N          1.49818        2.70534        0.09897
H          0.59503        3.17932        0.13437
H          2.18615        3.43641       -0.08012
C          2.97815        1.16379       -0.30245
C          3.37879       -0.15725       -0.39696
N          2.85324       -1.39690       -0.27716
C          1.60007       -1.65489        0.25939
C          0.85035       -0.67732        0.99058
N          1.69428       -2.70934       -0.05854
H          2.37340       -3.43709       -0.27997
H          0.77785       -3.13795       -0.20314
H          4.39151       -0.14453       -0.82921
H          3.66159        1.93027       -0.66441
