23
Coordinates from ORCA-job ./opt_b97-3c_parallel
N         -1.62866       -3.33405       -0.03040
C         -1.74736       -2.19799       -0.01396
C         -1.79200       -0.77261        0.00986
C         -2.98142       -0.06583       -0.05463
N         -3.26760        1.25515       -0.07471
C         -2.17976        2.10812       -0.10932
C         -0.88332        2.53303       -0.14758
C         -0.20920        1.37570        0.09700
C          1.15531        0.91153        0.10169
C          0.80741       -0.37173        0.14548
C          1.91894       -1.23709        0.06272
N          2.98412       -0.27342       -0.00445
C          2.49961        1.02173        0.00521
N          3.24231        1.83458       -0.08911
H          4.26089        1.82473       -0.16313
H          2.99067        2.81596        0.03971
N          2.05091       -2.33396        0.00546
H          1.30552       -3.03383        0.03200
H          2.91177       -2.86550       -0.13486
C         -0.56998       -0.04207        0.13717
H         -0.58739        3.47736        0.30353
H         -2.91809        2.92546       -0.10138
H         -3.99246       -0.49945       -0.10419
