25
Coordinates from ORCA-job ./opt_b97-3c_parallel
N         -3.92845       -2.42171       -0.15263
C         -3.08335       -1.65534       -0.09220
C         -2.02463       -0.68762        0.02498
C         -0.70758       -1.23147        0.26016
C          0.36167       -0.36765        0.61356
C          1.77613       -0.57990        0.68107
C          1.96018        0.76130        0.53185
C          3.04430        1.16825       -0.17438
C          3.30264       -0.19196       -0.19173
C          2.63552       -1.38810        0.00841
H          2.29092       -1.98765       -0.83269
N          4.34703       -0.44898       -0.47869
H          5.04644        0.25643       -0.25444
H          4.77000       -1.35210       -0.27155
H          3.74320        1.88253        0.25822
C          0.54043        0.95363        0.45648
C         -0.22162        1.97431       -0.01822
C         -1.58132        1.88685       -0.21819
C         -2.38918        0.66352       -0.12346
N         -3.40744        1.07327       -0.29399
H         -4.14658        0.37460       -0.35635
H         -3.77322        1.83419        0.27515
H         -2.05778        2.83661       -0.47420
H          0.25834        2.93324       -0.18529
H         -0.55684       -2.30625        0.29425
