23
Coordinates from ORCA-job ./opt_b97-3c_parallel
N         -3.92446       -2.24779        0.39159
C         -2.99446       -1.59389        0.29066
C         -1.86978       -0.72254        0.15294
C         -0.53309       -1.23510        0.12959
C          0.56372       -1.18658        0.05873
C          1.45146       -0.52300       -0.92107
C          2.32767        0.30791       -0.07163
C          3.52068        0.70666        0.37218
C          3.63213       -0.55604       -0.01029
N          2.69201       -1.24718       -0.55982
H          4.57078       -1.12060        0.11434
H          4.36216        1.22790        0.82436
C          0.88817        0.23654        0.29239
C          0.16585        1.50868       -0.08710
N         -1.21893        1.69394       -0.14275
C         -2.06742        0.64341        0.00760
N         -2.92494        1.34501       -0.04892
H         -3.67037        0.64584       -0.08557
H         -3.41196        2.23981        0.02279
N          0.44852        2.57046       -0.22879
H          1.44743        2.51496       -0.02078
H          0.30634        3.51761       -0.58390
H         -0.36922       -2.30623        0.23084
