27
Coordinates from ORCA-job ./opt_b97-3c_parallel
N          4.24327        1.59492        0.75075
C          3.50369        0.74501        0.56688
C          2.50479       -0.25529        0.31091
C          1.43759       -0.71417        0.26430
C          1.11133       -1.84399        0.42161
C          2.10568       -2.19177       -0.44141
C          2.99734       -1.24650       -0.47111
H          3.92424       -1.24712       -1.04455
H          2.17865       -3.14335       -0.96542
C          0.05307       -0.94751        0.18984
C         -1.35144       -1.27597        0.27870
N         -1.58252       -2.34734        0.43980
H         -2.47093       -2.82896        0.29373
H         -0.91663       -3.07519        0.70145
C         -2.37672       -0.27696        0.09884
C         -3.77990       -0.58498        0.11261
N         -4.90511       -0.77750        0.10463
C         -2.18274        1.07449       -0.12852
N         -1.13264        1.91598       -0.21473
C          0.20583        1.55137       -0.08530
C          0.78030        0.24098        0.10596
N          0.78619        2.49212       -0.15877
H          0.76567        3.43312       -0.55499
H          1.73378        2.39363        0.21495
N         -2.71193        2.03727       -0.30657
H         -3.58716        1.54566       -0.50265
H         -2.98946        3.01438       -0.19745
