22
Coordinates from ORCA-job ./opt_b97-3c_parallel
N          3.81469        1.41633       -0.60268
C          3.16982        0.66438       -0.03279
C          2.33878       -0.04185        0.13522
C          0.97602       -0.10585        0.12105
C          0.35954       -1.39147        0.18047
N          1.31719       -1.95774        0.22813
C          2.27699       -1.40584        0.19816
H          3.03558       -2.14393       -0.10485
C         -0.59330       -0.81942        0.10828
C         -1.68712       -1.06711        0.03309
N         -2.82433       -0.34445       -0.04497
C         -2.74307        1.00307       -0.04304
N         -1.69818        1.77971        0.00888
C         -0.44035        1.44322        0.05012
C         -0.01652        0.40699        0.08058
N         -0.22699        2.52763        0.02527
H         -0.63228        3.43275       -0.20686
H          0.78311        2.65156        0.03397
H         -3.76247        1.41078       -0.11070
N         -2.45655       -1.86015       -0.03937
H         -1.76585       -2.60770       -0.04885
H         -3.26961       -2.20454       -0.54660
