21
Coordinates from ORCA-job ./opt_b97-3c_parallel
N          2.84773        1.78033       -0.05791
C          2.13499        0.64784        0.02089
C          1.13926        0.21152        0.82427
C          0.86373       -1.15261        0.73183
C          1.62034       -1.82396       -0.16318
C          2.41179       -0.68802       -0.22933
H          3.43919       -0.88194       -0.52467
H          2.05099       -2.79039        0.08683
C         -0.54461       -0.88893        0.72189
C         -1.53152       -1.50489        0.00750
C         -2.68632       -0.83218       -0.26297
N         -3.20161        0.44423       -0.37327
C         -2.23472        1.39947       -0.12915
C         -0.91766        1.54338        0.19434
C         -0.26168        0.51616        0.80966
H         -0.38706        2.45478       -0.06879
H         -2.97450        2.19749       -0.29090
H         -3.61466       -1.38175       -0.47935
H         -1.40791       -2.53267       -0.32452
H          2.37992        2.68399       -0.03023
H          3.63134        1.84862       -0.70439
