20
Coordinates from ORCA-job ./opt_b97-3c_parallel
N         -1.05335       -2.40467       -0.08545
C         -1.06093       -1.30797       -0.20425
N         -2.31764       -0.89024        0.21335
C         -2.67397        0.41096        0.31441
C         -2.08943        1.66506        0.23848
C         -0.72409        1.92472       -0.12810
C          0.05934        0.92641       -0.63776
C          1.41742        0.82437       -0.84927
C          1.30022       -0.59671       -0.95439
N          2.07362       -1.07920        0.06089
C          2.67417        0.08501        0.53278
C          2.33901        1.32376        0.02194
H          3.10925        2.01366       -0.31635
H          3.39958        0.05151        1.36055
C         -0.10337       -0.40552       -0.75899
H         -0.35957        2.94467       -0.04231
H         -2.67284        2.53877        0.51499
H         -3.72114        0.47918        0.64785
H         -0.05607       -2.52587        0.09993
H         -1.46303       -3.33770       -0.08376
