23
Coordinates from ORCA-job ./opt_b97-3c_parallel
N          5.07192        0.59355       -0.13796
C          3.92900        0.57545       -0.13521
C          2.50054        0.53493       -0.09432
C          1.87360        1.79710       -0.14369
C          0.64718        1.22044       -0.06208
C          0.59142       -0.08923       -0.00409
C          1.76091       -0.73157       -0.01445
N          1.85700       -1.82840        0.03129
H          2.85664       -2.02264        0.00594
H          1.37691       -2.72631       -0.00026
C         -0.82836       -0.07942        0.02496
C         -1.86837       -1.03831        0.06292
C         -1.69972       -2.45505        0.11108
N         -1.19760       -3.47702        0.00756
C         -3.22655       -0.53985        0.04814
N         -3.72602        0.72703        0.00054
C         -3.06502        1.96426       -0.05848
C         -1.72013        2.26853       -0.08672
C         -0.79198        1.28121       -0.04062
H         -1.40348        3.30517       -0.14122
H         -3.90059        2.67990       -0.08437
H         -4.13954       -1.15346        0.07248
H          2.16038        2.59411        0.53845
