20
Coordinates from ORCA-job ./opt_b97-3c_parallel
N         -5.18420       -0.87266       -0.00486
C         -4.10036       -0.50801        0.00108
C         -2.74207       -0.06571        0.00054
C         -1.77129       -1.05942       -0.00054
C         -0.40226       -0.63748       -0.00036
C          0.88596       -1.26965       -0.00112
C          1.43991       -0.03647       -0.00038
C          2.81240       -0.19974       -0.00144
C          3.72230        0.89925       -0.00216
N          4.47944        1.75518       -0.00303
C          2.78336       -1.59278       -0.00321
N          1.67892       -2.39349       -0.00338
H          3.75922       -2.10020       -0.00584
C          0.22804        0.59874        0.00116
C         -0.29670        1.93574        0.00171
N         -1.41350        1.94242        0.00226
C         -2.34500        1.32685        0.00201
H         -3.22556        1.98782        0.00300
H          0.33361        2.83846        0.00220
H         -1.99725       -2.12169       -0.00174
