20
Coordinates from ORCA-job ./opt_b97-3c_parallel
N         -0.95464       -2.76826        0.30555
C         -0.96159       -1.66069        0.24760
N         -2.14956       -1.36404       -0.40855
C         -2.35186       -0.00422       -0.60559
N         -1.93365        1.31196       -0.46068
C         -0.74666        1.49769        0.24309
C          0.02735        0.38417        0.92859
C          1.50055        0.45854        1.09713
C          0.97768       -0.35453       -0.01938
N          2.04356       -0.43283       -1.00238
C          3.04296        0.39246       -0.66959
N          2.15973        0.66002        0.23668
H          4.03667        0.68758       -1.04563
C         -0.11866       -1.07631        0.67239
N         -0.63362        2.59857        0.18196
H          0.31434        2.90204       -0.05700
H         -1.13884        3.46481        0.38579
H         -3.30962        0.06039       -1.14873
H         -1.57636       -3.47299        0.71093
H         -0.16084       -3.30533       -0.05533
