23
Coordinates from ORCA-job ./opt_b97-3c_parallel
N          2.41404        3.15184       -0.02445
C          2.13499        2.04381       -0.03697
C          1.80124        0.65438       -0.01842
C          0.44912        0.23161       -0.00526
C         -0.84037        0.84071        0.00359
C         -1.44590       -0.37218        0.02793
C         -2.78875       -0.25388        0.05830
C         -2.90956        1.10287        0.04771
C         -1.75675        1.81783        0.01641
H         -1.61291        2.89532        0.00285
H         -3.88016        1.59364        0.06449
N         -3.81686       -1.11333        0.09356
H         -4.74500       -0.81473       -0.19937
H         -3.68642       -2.07969       -0.19873
C         -0.17911       -1.04322        0.01818
C          0.29581       -2.31525        0.03232
C          1.64931       -2.57638        0.01920
C          2.74966       -1.72331       -0.00239
C          2.83368       -0.26851       -0.01777
H          3.84711        0.12299       -0.03121
H          3.71787       -2.21449       -0.00730
H          1.90123       -3.63246        0.02759
H         -0.40636       -3.14272        0.05080
