22
Coordinates from ORCA-job ./opt_b97-3c_parallel
N         -4.07143       -1.86385       -0.73489
C         -3.12769       -1.26691       -0.49769
C         -1.97408       -0.48394       -0.18163
C         -0.89376       -1.26725        0.17819
C          0.25551       -0.67143        0.77183
C          1.57816       -1.20824        0.92436
C          2.04662        0.14688        0.92587
C          3.04756        0.23345        0.01246
C          3.21084       -1.00209       -0.47214
C          2.35422       -1.89091        0.04307
H          2.30325       -2.95366       -0.18459
H          3.97292       -1.26226       -1.20421
H          3.64268        1.11077       -0.23033
C          0.75633        0.57310        0.73200
C          0.25163        1.76808        0.13682
N         -1.04724        1.87371       -0.19851
C         -2.04427        0.96008       -0.25252
H         -2.99459        1.42210       -0.56185
N          0.58407        2.78908       -0.11775
H          1.59755        2.81417       -0.22346
H          0.28422        3.75902       -0.02256
H         -0.94245       -2.35372        0.13618
