24
Coordinates from ORCA-job ./opt_b97-3c_parallel
N          3.53740        2.70191       -0.00723
C          2.91882        1.74208        0.01279
C          2.10311        0.56867        0.04150
C          0.81416        0.20895        0.02822
C          0.70992       -1.15387        0.09909
C          1.80458       -1.95120        0.17034
C          2.62967       -0.80578        0.13039
N          3.67038       -1.17532        0.19788
H          4.31209       -0.38384        0.20955
H          4.24436       -2.01593        0.16683
H          1.93035       -2.77543       -0.53158
C         -0.71651       -0.94535        0.06533
C         -1.86543       -1.78995        0.10725
C         -3.12768       -1.27398        0.08089
C         -3.29666        0.08226       -0.02071
N         -2.78937        1.37513       -0.09893
C         -1.40265        1.55430       -0.08025
C         -0.53119        0.41362       -0.00723
H         -0.86749        2.51549       -0.12757
N         -4.28570        0.57292       -0.09034
H         -4.77987        1.45656        0.03631
H         -5.00253       -0.10931       -0.33459
H         -3.97239       -1.92867        0.29116
H         -1.71837       -2.86384        0.17258
