26
Coordinates from ORCA-job ./opt_b97-3c_parallel
N         -2.08965       -3.72596       -0.57638
C         -2.03787       -2.61075       -0.33521
C         -1.92148       -1.22189       -0.02434
C         -1.14287       -0.74759        1.07618
C         -1.52943        0.61090        1.09049
C         -2.48933        0.83410        0.13323
C         -2.99590        1.82174       -0.76710
N         -3.00710        2.91426       -0.43111
C         -2.88127       -0.34233       -0.46226
H         -3.93099       -0.63593       -0.48204
C         -0.17230        0.99051        0.90988
C          0.35448        2.03926        0.19759
N          1.61461        2.26520       -0.22340
C          2.60622        1.28184       -0.16362
N          3.41092        2.02274       -0.33096
H          3.78425        2.95985       -0.18117
H          4.22315        1.40555       -0.37480
C          2.42708       -0.14707        0.02070
C          3.61501       -0.95171        0.00965
N          4.58644       -1.55111       -0.02497
C          1.24083       -0.84112        0.08703
C          0.25211       -0.36372        0.89666
N          1.09848       -2.17804       -0.01456
H          1.79912       -2.75272       -0.48335
H          0.18639       -2.61037       -0.15738
H         -0.20366        2.96537       -0.01077
