25
Coordinates from ORCA-job ./opt_b97-3c_parallel
N          3.71170        2.40239        0.49912
C          2.85056        1.67185        0.31729
C          1.76277        0.76974        0.05146
C          2.02404       -0.60464        0.16915
N          3.00279       -1.06746        0.42156
H          3.72979       -0.41963        0.12423
H          3.40776       -2.00077        0.37458
C          1.13778       -1.77224        0.11107
C         -0.20490       -1.77651       -0.22024
C         -0.86988       -0.62594       -0.73132
C         -2.26675       -0.35032       -0.91456
C         -1.88692        1.03535       -0.91579
C         -2.65888        1.66298        0.01023
C         -3.46138        0.73475        0.53155
C         -3.25514       -0.47607        0.01220
H         -3.78518       -1.38949        0.26942
H         -4.20455        0.94275        1.29777
H         -2.63666        2.71971        0.26362
C         -0.57667        0.68187       -0.69552
C          0.50821        1.39534       -0.28147
H          0.46636        2.48031       -0.25678
N         -0.77041       -2.72451       -0.19142
H         -0.52940       -3.68548        0.04190
H         -1.73627       -2.58009        0.09708
H          1.55525       -2.75517        0.35665
