23
Coordinates from ORCA-job ./opt_b97-3c_parallel
N          5.04869        0.83629        0.00617
C          3.91931        0.66352       -0.01130
C          2.49868        0.47793       -0.00988
C          1.87955       -0.82737       -0.01313
N          0.83545       -1.19919       -0.01337
C         -0.21423       -0.84544       -0.01062
C         -1.66813       -0.97674       -0.00010
C         -1.82757        0.34999        0.01066
C         -3.16552        0.70754        0.04589
N         -3.54172       -0.65661        0.04970
C         -2.76687       -1.77748        0.02700
H         -2.97008       -2.85927        0.02637
N         -3.96807        1.46322        0.07708
H         -3.77418        2.45621        0.20322
H         -4.98324        1.37189        0.05101
C         -0.45336        0.60367       -0.00464
C          0.32494        1.73925        0.00286
C          1.77108        1.66344       -0.00207
H          2.30233        2.61200        0.00139
H         -0.13825        2.72069        0.01200
N          2.34729       -1.83174       -0.01517
H          3.32961       -1.56297        0.00192
H          2.32554       -2.84925        0.00787
