26
Coordinates from ORCA-job ./opt_b97-3c_parallel
N          6.05440        0.12570        0.19116
C          4.91204        0.11563        0.16392
C          3.48565        0.10674        0.08718
C          2.71642        1.34775        0.00713
C          1.49746        0.70025       -0.04167
C          1.60728       -0.59479       -0.01068
C          2.84566       -1.14951        0.11300
H          3.16251       -1.95555       -0.54514
C          0.23768       -0.77204        0.00076
C         -0.67538       -1.78258        0.07873
C         -0.17015       -3.11796        0.14936
N          0.05674       -4.21941       -0.05347
C         -2.09976       -1.55497        0.06860
C         -2.77502       -0.32941        0.01418
C         -4.17559       -0.66377        0.02297
N         -5.29440       -0.89838        0.02083
C         -2.30714        1.05865       -0.02920
C         -0.99543        1.51108       -0.05135
C         -0.40353        2.82295       -0.08713
N         -0.28292        3.95619        0.00140
C          0.07454        0.65968       -0.05835
N         -3.04541        1.88702       -0.04828
H         -4.05603        1.76196       -0.01211
H         -2.87133        2.89002       -0.00756
H         -2.68021       -2.47706        0.11075
H          2.99794        2.39573        0.01808
