27
Coordinates from ORCA-job ./opt_b97-3c_parallel
N         -4.78975       -1.58263       -0.31672
C         -3.99527       -0.89292        0.13089
C         -2.73964       -0.18098        0.08550
C         -1.65383       -1.15633        0.09489
C         -0.30315       -0.66835        0.05114
C          0.98745       -1.38577        0.02929
C          1.47069       -0.08460       -0.01450
C          2.81185        0.35646       -0.08619
C          3.19073        1.73843       -0.13796
N          3.52541        2.82968       -0.18476
C          3.53623       -0.80162       -0.10471
N          2.24798       -1.01339       -0.02803
N          4.37433       -1.51999       -0.14033
H          4.52698       -2.52845       -0.14290
H          5.28233       -1.09431       -0.32433
C          0.21248        0.56808        0.00724
C         -0.25132        1.90673       -0.02473
C         -1.60440        2.15291       -0.01114
C         -2.64598        1.21876        0.03548
N         -3.57056        1.83323        0.02483
H         -3.79699        2.81478       -0.12826
H         -4.45938        1.33416        0.02142
H         -1.83396        3.22218       -0.04340
H          0.47312        2.71381       -0.06463
N         -1.54980       -2.26269        0.12377
H         -1.13110       -3.18173        0.25423
H         -2.53459       -2.43136       -0.07838
