21
Coordinates from ORCA-job ./opt_b97-3c_parallel
N         -4.29208        0.09209        0.12567
C         -3.20542        0.27066        0.10285
N         -2.17716        1.17922        0.10224
C         -1.04685        0.41476        0.05705
C         -0.91557       -0.97225        0.01987
N         -2.01525       -0.25812        0.05879
C          0.50726       -0.61852        0.00566
C          1.69946       -1.41432       -0.03091
N          1.54812       -2.50770       -0.05921
H          0.98995       -3.28892       -0.39951
H          2.46108       -2.89337        0.17828
C          2.95354       -0.86991       -0.03115
C          3.06483        0.49107        0.00124
N          2.54268        1.77496        0.04123
C          1.15653        1.90317        0.06311
C          0.34232        0.71959        0.04282
H          1.42907        2.96944        0.08842
H          4.11191        0.83127       -0.00170
H          3.84237       -1.49130        0.07382
H         -4.85872        0.91450        0.32870
H         -4.93931       -0.69042        0.03766
