20
Coordinates from ORCA-job ./opt_b97-3c_parallel
N         -4.01695       -0.15916       -0.12106
C         -2.92633       -0.01467       -0.05352
N         -2.15352        1.12642       -0.02587
C         -0.80712        0.80027        0.05270
C         -0.82593       -0.30461        0.06661
N         -1.85172       -0.73194        0.02631
C          0.28028       -0.16762        0.05246
C          1.25985       -1.23576       -0.03216
N          2.56991       -0.90556       -0.05509
C          2.99595        0.37140       -0.00569
N          2.43127        1.53934        0.06411
C          1.13905        1.67891        0.10189
C          0.29252        0.95052        0.10792
H          1.45426        2.70352       -0.15013
H          4.09652        0.38939       -0.03925
N          1.36941       -2.33182       -0.09778
H          2.26359       -2.76822       -0.32084
H          0.71200       -3.09627        0.04422
H         -4.65573        0.56802       -0.44031
H         -4.58314       -0.99540        0.02163
