27
Coordinates from ORCA-job ./opt_b97-3c_parallel
N         -2.81192       -3.36972       -0.41491
C         -2.19671       -2.56571        0.11702
C         -1.42062       -1.33968        0.10850
C         -1.99016       -0.05413        0.05818
N         -3.10428       -0.03055        0.03330
H         -3.68194       -0.85552       -0.12160
H         -3.72941        0.77321       -0.00090
C         -1.38239        1.28536        0.02934
C         -2.17690        2.49806       -0.02119
N         -2.82260        3.44129       -0.04104
C         -0.02820        1.61469        0.03882
C          0.97660        0.59306        0.09825
C          2.41160        0.60561        0.12463
C          2.37903       -0.83238        0.18105
N          3.47794       -0.69432        0.19740
C          3.98822        0.28189        0.12113
C          3.41802        1.52105        0.10211
H          3.55073        2.18010       -0.75214
H          5.00142       -0.03557       -0.17099
C          0.98711       -0.75471        0.15040
C         -0.00953       -1.70692        0.16050
N          0.50792       -2.69250        0.20642
H         -0.03186       -3.47935       -0.14996
H          1.48452       -2.98161        0.21257
N          0.54713        2.56591        0.01252
H          1.42562        3.02861        0.23719
H         -0.12168        3.30273       -0.20584
