26
Coordinates from ORCA-job ./opt_b97-3c_parallel
N         -4.21645       -2.38888        0.11380
C         -3.37648       -1.61740        0.06637
C         -2.36358       -0.60409        0.01468
C         -2.93816        0.66911       -0.03933
N         -2.53045        1.96396       -0.10025
C         -1.19672        2.38128       -0.11830
C         -0.10706        1.46323       -0.06013
C          1.33472        1.71981       -0.03787
C          1.35265        0.33187        0.02433
C          2.47547       -0.53063        0.11419
C          2.76480       -1.93572        0.20489
N          3.43598       -2.56454       -0.47352
C          3.54874        0.32177        0.11927
N          2.39654        0.94342        0.03242
N          4.60999        0.63284        0.15178
H          5.30344        1.35948        0.33399
H          5.14436       -0.22360       -0.00759
C         -0.06412        0.12274       -0.00010
C         -0.94915       -0.92212        0.03274
N         -0.47135       -1.91738        0.07733
H         -1.22760       -2.54974        0.34200
H          0.27119       -2.51920       -0.27905
H         -1.12081        3.47954       -0.16667
N         -3.89916        1.22872       -0.05852
H         -4.53026        2.02476       -0.17218
H         -4.51901        0.43066        0.09723
