22
Coordinates from ORCA-job ./opt_b97-3c_parallel
N         -4.18747       -0.39613        0.00062
C         -3.08075       -0.68165        0.00138
C         -1.68786       -1.00137        0.00089
C         -0.70724        0.02024        0.00095
C         -0.65894        1.43748        0.00118
C          0.63729        1.43286        0.00074
C          1.12449        2.69471        0.00042
C          0.01685        3.48438        0.00085
C         -1.16249        2.74338        0.00135
H         -2.20187        3.05521        0.00128
H          0.04724        4.57134        0.00095
H          2.16643        3.00573        0.00009
C          0.73717        0.05645        0.00033
C          1.66884       -0.93998       -0.00057
C          3.04797       -0.56527       -0.00136
N          4.17908       -0.40109        0.00549
C          1.28530       -2.33144       -0.00051
C         -0.00107       -2.86342        0.00005
C         -1.28192       -2.32113        0.00054
H         -2.08257       -3.05598        0.00069
H         -0.00490       -3.94929       -0.00002
H          2.10581       -3.04342       -0.00097
