22
Coordinates from ORCA-job ./opt_b97-3c_parallel
N          5.09834        0.27547       -0.00238
C          4.06942       -0.22288        0.00287
C          2.64141       -0.13804        0.00130
C          1.71765        0.90250        0.00055
C          0.32751        0.53667       -0.00098
C         -0.94328        1.21302       -0.00222
C         -1.53537        0.00042       -0.00336
C         -2.90257        0.19932       -0.00522
C         -3.81969       -0.89345       -0.00809
N         -4.57635       -1.74983       -0.00501
C         -2.83062        1.59009       -0.00473
N         -1.70317        2.35994       -0.00316
H         -3.78583        2.13640       -0.00599
C         -0.34927       -0.67559       -0.00208
C          0.11756       -2.03385       -0.00218
N          1.23092       -2.09411       -0.00086
C          2.18463       -1.51357        0.00041
H          2.71690       -2.47772        0.00077
H         -0.59261       -2.87461       -0.00325
N          1.91221        1.98856        0.00102
H          1.22887        2.74441       -0.00082
H          2.83535        2.41889       -0.00243
