20
Coordinates from ORCA-job ./opt_b97-3c_parallel
N         -1.18483       -2.47231        0.04215
C         -1.19588       -1.36997        0.03376
C         -0.11672       -0.51665        0.01761
C          1.24915       -0.53691        0.01542
C          1.42831        0.74495       -0.00938
N          2.63104        1.28023       -0.01786
C          3.35258        0.04493        0.00636
C          2.50069       -1.16019        0.02945
H          2.76884       -2.21143        0.05549
H          4.45092       -0.02817        0.01081
C          0.00784        0.94123       -0.00818
C         -0.85305        2.01654       -0.02119
C         -2.27784        1.77988       -0.00353
C         -2.74612        0.48258        0.02139
N         -2.33592       -0.74670        0.03374
H         -3.84408        0.56280        0.03466
H         -2.94395        2.63817       -0.00930
H         -0.49525        3.04207       -0.04052
H         -0.30319       -2.94604       -0.15112
H         -1.91443       -3.17797       -0.04657
