23
Coordinates from ORCA-job ./opt_b97-3c_parallel
N         -1.15985       -3.85512        0.00429
C         -1.20758       -2.71465       -0.02091
C         -1.30357       -1.29076       -0.03983
C         -0.11339       -0.48977       -0.06297
C          1.24296       -0.68351       -0.01842
C          1.54547        0.57218       -0.01010
C          2.93451        0.79917        0.09010
N          3.25564        1.85139        0.14770
H          4.25271        1.64016        0.17857
H          3.17896        2.86691        0.17089
C          3.48710       -0.49066        0.12831
C          2.43944       -1.41580        0.06780
H          2.52048       -2.49684        0.12572
H          4.45619       -0.70739       -0.31643
C          0.16675        0.94078       -0.05894
N         -0.59777        2.07540       -0.00805
C         -1.90839        1.66251       -0.01327
N         -2.91141        0.71300       -0.02963
C         -2.60815       -0.65305       -0.04152
H         -3.51286       -1.28081       -0.03454
N         -2.52157        2.57886        0.01058
H         -2.08650        3.50093        0.01029
H         -3.52771        2.74104        0.02845
