22
Coordinates from ORCA-job ./opt_b97-3c_parallel
N         -2.77512       -2.08206        0.03664
C         -2.19613       -0.87892        0.15423
C         -1.38373       -0.26214       -0.73278
C         -1.32862        1.13169       -0.59772
C         -2.11525        1.63999        0.37587
C         -2.71509        0.38940        0.36921
H         -3.78635        0.41030        0.55488
H         -2.70247        2.53964        0.20544
C          0.10422        1.13931       -0.71809
C          1.02209        1.92266       -0.08062
C          2.30316        1.49447        0.10181
N          2.98287        0.29827        0.22278
C          2.13952       -0.77619        0.02528
N          0.89158       -1.25078       -0.32820
C          0.03930       -0.28632       -0.85037
N          2.82162       -1.60031        0.29021
H          3.83997       -1.62087        0.32619
H          2.51500       -2.57189        0.27746
H          3.02679        2.30807        0.26535
H          0.73908        2.92191        0.24508
H         -2.25794       -2.92694        0.27191
H         -3.73143       -2.21540        0.36383
