24
Coordinates from ORCA-job ./opt_b97-3c_parallel
N          4.69875        0.63084        0.00191
C          3.57612        0.42004        0.00154
C          2.15213        0.21933        0.00053
C          1.51804       -1.10551        0.00221
N          2.18099       -1.99442        0.00380
H          3.19824       -2.06240        0.00222
H          1.83226       -2.95323        0.00510
C          0.08213       -1.35438        0.00235
C         -0.54272       -2.64697        0.00506
N         -1.01499       -3.68696        0.00050
C         -0.83406       -0.33935       -0.00093
C         -2.19750       -0.12272       -0.00141
C         -2.13533        1.14553       -0.00275
C         -3.36991        1.79892       -0.00160
N         -3.50300        0.62915       -0.00086
C         -3.53258       -0.54791        0.00070
H         -4.18411       -1.43615        0.00313
H         -4.04152        2.67111       -0.00076
C         -0.70664        1.09787       -0.00281
N          0.32144        1.94081       -0.00087
C          1.58943        1.49847        0.00032
N          1.74524        2.60040        0.00022
H          1.56513        3.60481        0.00101
H          2.76262        2.51041       -0.00209
