27
Coordinates from ORCA-job ./opt_b97-3c_parallel
N          4.41691        1.47779       -0.64020
C          3.40286        1.02053       -0.38346
C          2.09904        0.50504       -0.05464
C          1.25737        1.60805        0.00478
N         -0.01236        1.81620        0.38701
C         -0.66164        0.80282        1.06621
C         -2.08292        0.61836        1.12264
C         -1.96103       -0.79205        0.99620
C         -2.80820       -1.19583        0.01860
C         -3.41508       -0.11072       -0.46162
C         -2.96110        1.03644        0.14859
N         -3.09459        2.01042       -0.35485
H         -3.07995        3.01542       -0.52561
H         -4.08008        1.76148       -0.26866
H         -4.17420       -0.13909       -1.24255
H         -2.99449       -2.22317       -0.28709
C         -0.53865       -0.59969        0.91124
C          0.40797       -1.42085        0.21398
C          0.06911       -2.80100        0.00431
N         -0.23162       -3.88846       -0.17352
C          1.74778       -0.91114       -0.03066
N          2.55874       -1.61424       -0.31546
H          2.32927       -2.60500       -0.39696
H          3.57507       -1.55481       -0.37223
N          1.10580        2.70613       -0.09356
H          2.09137        2.93916       -0.22416
H          0.58981        3.54353       -0.36668
