24
Coordinates from ORCA-job ./opt_b97-3c_parallel
N          3.74297        2.35976        0.22716
C          2.76947        1.79103        0.42088
C          1.82298        0.74033        0.17271
C          0.60803        1.36411       -0.07837
C         -0.46121        0.67579       -0.74393
C         -1.84467        1.03585       -0.78487
C         -2.18255       -0.29311       -0.91355
C         -3.16646       -0.44837       -0.01460
C         -3.30703        0.76057        0.50472
N         -2.53347        1.72499        0.08712
H         -4.06418        0.95592        1.27903
H         -3.72949       -1.34886        0.21672
C         -0.78312       -0.63137       -0.89309
C         -0.15261       -1.74672       -0.26230
N         -0.73992       -2.67845       -0.17032
H         -1.74041       -2.62677        0.01034
H         -0.43062       -3.59976        0.13305
C          1.12730       -1.73785        0.20890
C          2.02200       -0.69741        0.14082
N          3.05547       -1.07894        0.25158
H          3.37699       -1.89021       -0.27256
H          3.76978       -0.35948        0.15075
H          1.40973       -2.59220        0.83330
H          0.45896        2.43409        0.05387
