28
Coordinates from ORCA-job ./opt_b97-3c_parallel
N          5.10724        0.86496       -0.84558
C          4.04640        0.52057       -0.59947
C          2.72213        0.09024       -0.24424
C          1.68451        1.04956        0.07971
C          0.44709        0.57690        0.61598
C         -0.80287        1.22876        0.89388
C         -1.35325       -0.08246        1.00119
C         -2.45036       -0.01164        0.10402
C         -3.27656       -1.15258       -0.14223
N         -3.93193       -2.07522       -0.30412
C         -2.49866        1.31428       -0.29796
C         -1.47213        2.13726        0.12636
H         -1.65519        3.14612        0.49246
N         -3.24179        1.80768       -0.95149
H         -4.05621        1.22675       -0.75317
H         -3.57190        2.76965       -0.98971
C         -0.13199       -0.63380        0.67731
C          0.29619       -1.87701        0.30463
N         -0.39860       -2.73429        0.35730
H         -0.16649       -3.64480       -0.03496
H         -1.39832       -2.60376        0.21063
C          1.57325       -2.21492       -0.09680
C          2.68369       -1.30504       -0.29479
H          3.59626       -1.82842       -0.57441
H          1.80978       -3.26070       -0.28769
N          1.75903        2.15275        0.07338
H          2.73711        2.41835       -0.02746
H          1.25720        2.97882        0.39206
