24
Coordinates from ORCA-job ./opt_b97-3c_parallel
N          3.89152        1.35692        0.51977
C          2.97884        0.67777        0.42619
C          1.80882       -0.14108        0.27080
C          0.71651       -0.51036        0.39884
C          0.39563       -1.62359        0.64877
C          1.31048       -2.15164       -0.20093
C          2.21744       -1.24347       -0.41290
H          3.10450       -1.35592       -1.03692
H          1.31752       -3.16830       -0.58997
C         -0.65699       -0.78668        0.27924
C         -2.00527       -1.11405        0.21213
N         -3.06143       -0.33456       -0.07052
C         -2.69506        0.98363       -0.23346
C         -1.75751        1.96794       -0.22180
C         -0.46996        1.69323       -0.01561
C          0.04829        0.42861        0.18047
N          0.46274        2.65481        0.06136
H          0.28595        3.59445       -0.29267
H          1.45457        2.44859       -0.05799
H         -2.07382        3.00236       -0.34855
H         -3.65607        1.47422       -0.45353
N         -2.61875       -2.02805        0.30859
H         -3.54988       -2.37664        0.08075
H         -2.03220       -2.85298        0.42970
