27
Coordinates from ORCA-job ./opt_b97-3c_parallel
N          2.01350        3.52726        0.43679
C          1.81915        2.44052        0.14496
C          1.50928        1.09047       -0.21734
C          0.30565        0.82461       -0.84447
C         -0.86980        1.51186       -1.00962
C         -1.65696        0.40673       -1.09269
C         -2.60276        0.59466       -0.04440
N         -3.46121        0.06647        0.40898
H         -3.45386       -0.94923        0.52586
H         -4.44306        0.34208        0.42580
N         -2.44605        1.82787        0.58062
C         -1.36976        2.40685       -0.00853
H         -1.44035        3.16866        0.78322
C         -0.46171       -0.38345       -0.89839
C         -0.25664       -1.60121       -0.27674
C         -1.38589       -2.42417        0.03274
N         -2.32715       -3.02123        0.28491
C          1.09945       -1.99427        0.01202
C          2.18637       -1.27950       -0.41020
C          2.41475       -0.00425        0.02741
N          3.41353       -0.04944        0.49751
H          4.11027       -0.77560        0.65722
H          3.91455        0.83785        0.49108
H          2.69384       -1.60794       -1.31994
N          1.51847       -2.89880        0.48899
H          2.49409       -3.11430        0.69253
H          1.01402       -3.78312        0.53841
