23
Coordinates from ORCA-job ./opt_b97-3c_parallel
N          4.12260        2.38752        0.08728
C          3.26673        1.63145        0.04312
C          2.16644        0.71710       -0.00396
C          2.32094       -0.73166        0.01607
N          1.60982       -1.59986        0.00131
C          0.58187       -2.04891       -0.00458
C         -0.34562       -0.95886       -0.09675
C         -1.75239       -0.75779       -0.09644
C         -1.64940        0.53510       -0.12870
N         -2.73190        1.29192       -0.07595
C         -3.68659        0.21685       -0.03056
C         -3.09039       -1.14036       -0.03007
H         -3.54653       -2.12311        0.03981
N         -4.72309        0.59725        0.01932
H         -5.01532        1.56922       -0.08258
H         -5.58009        0.05557        0.12979
C         -0.21714        0.42293       -0.12047
C          0.90824        1.30760       -0.06187
H          0.76561        2.38451       -0.06328
H          0.46875       -3.14176        0.05842
N          3.25779       -1.31842        0.05762
H          3.98843       -0.60949        0.08466
H          3.71986       -2.20633       -0.12949
