26
Coordinates from ORCA-job ./opt_b97-3c_parallel
N         -2.10322       -3.80583       -0.13209
C         -1.86618       -2.69285       -0.02578
C         -1.56704       -1.30436        0.14501
C         -0.38893       -0.88150        0.82694
C          0.86206       -1.55847        0.98078
C          1.51969       -0.28776        1.01335
C          2.57699       -0.33718        0.15436
N          3.51995        0.57285       -0.12956
H          3.31935        1.56723       -0.03117
H          4.12825        0.44999       -0.93647
C          2.53275       -1.56208       -0.37904
C          1.52777       -2.31234        0.07220
H          1.30101       -3.33672       -0.21322
H          3.25369       -1.92088       -1.11042
C          0.24789        0.36530        0.83325
C         -0.11188        1.59991        0.34995
C          0.95743        2.55320        0.45092
N          1.64428        3.41040        0.13483
C         -1.47799        1.88229       -0.04063
C         -2.51137        0.97418       -0.26348
C         -2.54236       -0.40978       -0.24322
H         -3.47276       -0.84352       -0.60163
H         -3.46443        1.39355       -0.58853
N         -1.78966        2.91972       -0.27019
H         -2.66642        3.41736       -0.12716
H         -1.05274        3.62331       -0.29421
