26
Coordinates from ORCA-job ./opt_b97-3c_parallel
N          4.27812        1.27270        0.28595
C          3.57335        0.37200        0.28556
C          2.18122        0.07634        0.10448
C          1.66782       -1.26685       -0.01233
C          0.36960       -1.67801        0.04434
C         -0.41523       -1.07250       -0.88595
C         -1.84633       -1.14404       -1.04973
C         -1.92584        0.19235       -1.18667
C         -2.85557        0.60224       -0.18168
C         -3.46244       -0.42362        0.50780
C         -2.69205       -1.47137        0.05585
H         -2.45823       -2.33149        0.67545
H         -4.54740       -0.51735        0.54447
N         -3.01565        1.55336        0.35986
H         -4.03146        1.47223        0.31228
H         -2.82749        2.53516        0.55499
C         -0.56946        0.34666       -1.05220
N          0.05651        1.33109       -0.29212
C          1.36586        1.20146        0.17470
N          1.20371        2.28649        0.32433
H          0.77382        3.18190        0.55433
H          2.21241        2.42975        0.40068
H         -0.05989       -2.07596        0.96440
N          2.19389       -2.23956       -0.04948
H          1.87739       -3.20758       -0.10170
H          3.21256       -2.27622       -0.02902
