21
Coordinates from ORCA-job ./opt_b97-3c_parallel
N          4.42966       -0.04079        0.16744
C          3.34119       -0.22570        0.11250
C          2.38001       -1.19636        0.13758
C          1.27611       -0.40016        0.08932
C          1.17093        0.98076        0.05226
N          2.43797        0.70520        0.08378
C         -0.21365        0.86742        0.02819
C         -1.31076        1.70119       -0.01269
N         -2.61497        1.35907       -0.02712
C         -2.82220       -0.01028        0.00585
N         -3.92425       -0.06624       -0.01313
H         -4.57452        0.68065       -0.25991
H         -4.50885       -0.86909        0.22136
N         -2.44999       -1.34487        0.04859
C         -1.08543       -1.62714        0.08074
C         -0.13860       -0.54312        0.06711
H         -1.23522       -2.71813        0.10835
H         -1.35204        2.80171       -0.04154
H          2.46061       -2.08465       -0.48735
H          4.95387        0.83332        0.22947
H          5.13577       -0.77863        0.16636
