25
Coordinates from ORCA-job ./opt_b97-3c_parallel
N         -1.61664       -3.42092        0.24488
C         -1.60928       -2.27818        0.26549
C         -1.55940       -0.84860        0.28743
C         -0.49147       -0.14986        0.92856
C          0.88491       -0.50922        1.09970
C          1.26495        0.86360        1.01607
C          2.28491        1.00018        0.13311
C          2.50918       -0.22408       -0.35210
C          1.64340       -1.16501        0.15994
N          1.57591       -2.10507       -0.41413
H          0.83074       -2.76349       -0.19074
H          2.44984       -2.62645       -0.38055
H          3.28964       -0.44360       -1.08038
N          2.98497        2.09585       -0.19592
H          3.95212        2.00900       -0.50187
H          2.90967        2.93742        0.37197
C         -0.11881        1.19634        0.81500
C         -0.69806        2.23930        0.15332
C         -2.00489        2.23430       -0.27595
C         -2.92255        1.19941       -0.35488
C         -2.70641       -0.22185       -0.16573
H         -3.54707       -0.84638       -0.45611
H         -3.90953        1.46068       -0.72396
H         -2.36869        3.19204       -0.63539
H         -0.11926        3.14917        0.02871
