22
Coordinates from ORCA-job ./opt_b97-3c_parallel
N         -3.76246       -0.54912        0.02337
C         -2.70681       -0.22894       -0.01657
N         -2.13182       -1.50809       -0.00564
C         -0.77984       -1.85529       -0.01842
C          0.25188       -0.95550       -0.04400
C          1.62871       -1.03151       -0.00041
C          1.63219        0.34293       -0.04180
C          2.79873        0.99655        0.00540
C          3.59657       -0.03795        0.06086
N          2.93950       -1.15865        0.04331
H          4.69056       -0.14533        0.11945
H          3.01843        2.06146        0.00472
C          0.21476        0.45519       -0.08244
C         -0.75970        1.38842       -0.10189
N         -0.37774        2.64911        0.15557
H          0.55006        2.97406       -0.11482
H         -1.02617        3.42714        0.04098
C         -2.08717        1.08210       -0.06092
H         -2.79587        1.90627       -0.05962
H         -0.33309       -2.86138        0.01153
H         -4.41149        0.20504        0.24646
H         -4.32618       -1.39621       -0.03797
