25
Coordinates from ORCA-job ./opt_b97-3c_parallel
N          5.18074       -0.18575       -0.07828
C          4.21300        0.41992       -0.03651
C          2.83998        0.02228       -0.02850
C          1.95491        1.20313       -0.01009
C          0.76029        0.57487       -0.00595
C          0.80475       -0.73075       -0.01831
C          2.08832       -1.17557       -0.03510
N          2.25773       -2.26552       -0.04912
H          3.25808       -2.06153       -0.02900
H          2.18055       -3.27326       -0.17791
C         -0.56371       -0.87317       -0.01027
N         -1.47707       -1.89190       -0.01492
C         -2.83236       -1.57542       -0.00491
N         -3.21666       -2.61096       -0.01012
H         -4.22937       -2.73057       -0.00596
H         -2.82597       -3.55302        0.00080
C         -3.51651       -0.35775        0.00601
C         -3.04206        1.01903        0.01299
C         -1.73723        1.47266        0.01358
C         -1.49575        2.88085        0.01808
N         -1.28270        4.00210       -0.00206
C         -0.66518        0.55162        0.00330
H         -3.82851        1.77003        0.01936
H         -4.60134       -0.42707        0.00949
H          2.19995        2.26126       -0.00269
