28
Coordinates from ORCA-job ./opt_b97-3c_parallel
N         -4.22713       -2.23410        0.01958
C         -3.36794       -1.48149        0.01447
C         -2.25338       -0.56487        0.01303
C         -1.01192       -1.21102        0.01112
C          0.17653       -0.51744       -0.04872
C          1.58404       -0.80505       -0.06593
C          1.94427        0.43379       -0.10751
N          3.22129        0.77153       -0.09158
C          3.74145       -0.56727       -0.05351
C          2.70790       -1.62917       -0.03144
H          2.79358       -2.70980        0.02543
N          4.84623       -0.54938       -0.03200
H          5.48010       -1.34668        0.01846
H          5.43826        0.28055       -0.06615
C          0.56130        0.81000       -0.08718
C         -0.20133        2.00226       -0.04576
N          0.44014        2.90165       -0.05929
H          1.35647        3.34685       -0.07150
H         -0.23828        3.65889        0.01286
C         -1.56264        1.95444        0.05916
C         -2.45296        0.89247        0.00062
N         -3.48528        1.29842       -0.03029
H         -3.89210        2.20793        0.18087
H         -4.25928        0.63588       -0.05434
H         -1.99283        2.94275        0.26093
N         -0.67492       -2.27081        0.02147
H         -1.62010       -2.65219        0.00094
H         -0.05684       -3.07886       -0.01735
