26
Coordinates from ORCA-job ./opt_b97-3c_parallel
N          3.22211        3.09166       -0.59056
C          2.44623        2.27686       -0.38609
C          1.46302        1.27093       -0.09546
C          2.04752        0.01048       -0.22878
C          1.42130       -1.30509       -0.16803
C          2.40508       -2.28932       -0.52912
N          3.18353       -3.09595       -0.30582
C          0.11526       -1.65055        0.14529
C         -0.79637       -0.68340        0.66911
C         -2.22418       -0.70377        0.81583
C         -2.21570        0.67445        0.81172
C         -3.20468        1.08655       -0.02714
C         -3.75588       -0.00896       -0.53873
C         -3.18005       -1.10851       -0.06430
H         -3.43902       -2.13488       -0.31195
H         -4.57432       -0.00621       -1.25466
H         -3.48311        2.11482       -0.24367
C         -0.78331        0.66208        0.65632
C          0.09765        1.62100        0.23093
N         -0.31355        2.64839        0.25480
H          0.35050        3.39074        0.04147
H         -1.23096        3.08280        0.33167
N         -0.33915       -2.65990        0.14359
H          0.30908       -3.44499        0.10940
H         -1.25126       -3.03647        0.39384
H          3.10855       -0.00578       -0.48247
