26
Coordinates from ORCA-job ./opt_b97-3c_parallel
N          4.04625       -0.13023        0.97649
C          2.99890       -0.03577        0.14704
C          2.36146        1.12237       -0.21047
C          1.33697        0.82820       -1.16561
C          1.40048       -0.60456       -1.23132
C          2.41150       -1.07054       -0.45267
H          2.71092       -2.11315       -0.36100
C          0.00593       -0.57280       -0.89932
C         -0.82257       -1.60214       -0.32085
N         -2.08428       -1.31394        0.20218
C         -2.49226        0.00989        0.26603
N         -2.02186        1.19841        0.03232
C         -0.87459        1.71125       -0.30156
C          0.00641        0.78884       -0.82670
N         -0.74980        2.80221       -0.15899
H         -1.28235        3.67407       -0.18847
H          0.22936        3.09187       -0.19089
N         -3.51176       -0.15324        0.66111
H         -4.35771        0.40427        0.53839
H         -3.83083       -1.03625        1.06442
N         -0.98427       -2.66203       -0.07120
H         -1.52240       -3.52289        0.03408
H         -0.00801       -2.94831       -0.13547
H          2.24647        1.96179        0.46844
H          4.62622       -0.96868        0.97484
H          4.66911        0.66615        1.10996
