27
Coordinates from ORCA-job ./opt_b97-3c_parallel
N          4.83134        1.11800       -0.00410
C          3.70215        0.93590        0.00086
C          2.34665        0.44578        0.00176
C          1.94399       -0.89597       -0.00095
N          2.73121       -1.67981       -0.00277
H          3.72964       -1.47677        0.00509
H          2.63622       -2.69438        0.00114
C          0.55402       -1.34456       -0.00235
C          0.14586       -2.72369       -0.00525
N         -0.14906       -3.82791       -0.00217
C         -0.49535       -0.44730       -0.00056
C         -0.64184        0.95735        0.00688
N          0.27785        1.58315        0.00984
C          1.38740        1.53518        0.00667
N          1.44926        2.64648        0.00958
H          2.46033        2.76072        0.00120
H          1.04798        3.58158       -0.00736
C         -2.03863        0.62807        0.01036
C         -1.90613       -0.65518        0.00224
C         -3.10864       -1.26559        0.00879
C         -4.00207       -0.24792        0.02221
C         -3.39657        1.00723        0.02569
N         -3.94861        1.96025        0.04207
H         -3.48147        2.85183        0.19342
H         -4.93430        2.09847        0.25479
H         -5.07933       -0.39982        0.02862
H         -3.31286       -2.33362        0.00211
