24
Coordinates from ORCA-job ./opt_b97-3c_parallel
N         -3.31392       -3.34586        0.00278
C         -2.54197       -2.50328        0.01803
C         -1.55510       -1.46602        0.00934
C         -2.12791       -0.19207       -0.00170
C         -1.55283        1.08008       -0.01262
C         -2.55792        2.10726       -0.01612
N         -3.33396        2.94679       -0.01002
C         -0.24210        1.53149       -0.01999
C          0.79084        0.55086       -0.01524
C          2.23241        0.55403       -0.01815
C          2.19576       -0.79348       -0.00291
C          3.42185       -1.33535        0.00547
C          4.18896       -0.21056       -0.00818
C          3.51082        0.97154       -0.02263
H          3.89961        1.98656       -0.03686
H          5.27544       -0.25240       -0.00806
H          3.72007       -2.38064        0.01844
C          0.82915       -0.81927       -0.00035
C         -0.16098       -1.83497        0.01318
H          0.13380       -2.87994        0.02335
N          0.26249        2.51698       -0.02895
H          1.18591        2.92040        0.11595
H         -0.40917        3.28091        0.02324
H         -3.21847       -0.19347       -0.00104
