26
Coordinates from ORCA-job ./opt_b97-3c_parallel
N         -2.16708       -3.39897       -0.70155
C         -1.95978       -2.31246       -0.41912
C         -1.68041       -0.96588       -0.02978
C         -0.81557       -0.65130        1.06070
C         -0.95461        0.75311        1.12294
C         -1.87481        1.15911        0.18740
C         -2.24979        2.34447       -0.52133
N         -2.93178        3.21581       -0.23530
C         -2.46278        0.08423       -0.44095
H         -3.54607       -0.01552       -0.48050
C          0.45171        0.88302        0.92906
C          1.08614        1.84154        0.06754
C          2.47746        1.70424       -0.30004
C          3.27924        0.50915       -0.11446
N          4.37240        0.62083       -0.21958
H          5.00485       -0.15516       -0.03335
H          4.90686        1.47558       -0.07678
C          2.73119       -0.81740        0.05701
C          1.41287       -1.15182       -0.05691
C          0.61390       -0.52722        0.84542
N          1.26677       -2.48854       -0.07023
H          1.93083       -3.07351       -0.57348
H          0.34260       -2.90470       -0.17269
H          3.47255       -1.60985        0.15638
H          2.97111        2.60456       -0.65778
H          0.60798        2.80320       -0.08825
