22
Coordinates from ORCA-job ./opt_b97-3c_parallel
N         -2.31199       -2.28132        0.00715
C         -1.87644       -1.04050        0.27300
C         -0.90857       -0.63275        1.13292
C         -0.83843        0.77855        1.11564
C         -1.74298        1.21021        0.17710
N         -1.84106        2.11985       -0.44079
H         -1.44310        3.05019       -0.32901
H         -2.85328        2.22771       -0.41825
C         -2.38114        0.07372       -0.26500
H         -3.19560        0.07338       -0.98835
C          0.58750        0.79262        0.94088
C          1.35914        1.61068        0.16613
C          2.57895        1.20986       -0.28891
N          3.19091        0.03195       -0.65882
C          2.36735       -1.04091       -0.39681
N          1.20963       -1.54719        0.15683
C          0.51275       -0.64494        0.94943
H          2.98851       -1.79103       -0.90885
H          3.44414        1.81267       -0.60253
H          1.00030        2.60484       -0.08608
H         -1.67916       -3.07172        0.11538
H         -2.89099       -2.45389       -0.81202
