24
Coordinates from ORCA-job ./opt_b97-3c_parallel
N          1.55017       -3.76727       -0.61296
C          1.04058       -2.78056       -0.34769
C          0.42630       -1.52187       -0.00916
C         -0.96188       -1.46088        0.11961
C         -1.56120       -0.24937        0.44246
C         -0.91339        1.03246        0.42832
C          0.49824        0.87124        0.19792
C          1.27107       -0.34238        0.09949
C          2.62885       -0.33013       -0.00430
C          2.63964        1.03235       -0.04591
N          3.48094        1.74224       -0.15655
N          1.51097        1.74311        0.07603
C         -1.71006        2.04743        0.00425
C         -2.91788        1.54842       -0.19104
C         -2.87943        0.21581        0.08956
N         -3.78730       -0.40810        0.13071
H         -1.57565       -2.34116       -0.06508
H          3.24638       -0.88157        0.70232
H          3.47230        2.76190       -0.13059
H          4.44723        1.47458       -0.34421
H         -1.41713        3.08589       -0.13070
H         -3.78885        2.11015       -0.52531
H         -4.00857       -1.40167        0.08660
H         -4.67897        0.08373        0.16837
