21
Coordinates from ORCA-job ./opt_b97-3c_parallel
N          3.49482       -0.77711       -0.15381
C          2.40733        0.00751       -0.12120
C          2.44078        1.31968       -0.05987
C          1.23142        1.85442       -0.04843
C          0.14926        0.82425       -0.11375
C          1.08349       -0.28396       -0.14593
C          0.51462       -1.59525        0.04798
C         -0.89218       -1.90466        0.08345
C         -1.67693       -0.69915       -0.00369
C         -1.28196        0.65232       -0.13929
C         -2.25503        1.58582       -0.26343
C         -2.84873        0.35038       -0.10824
N         -3.01382       -0.75264       -0.00338
H          3.42860       -1.75383        0.12451
H          4.39551       -0.41829        0.15659
H          3.35744        1.90415       -0.02418
H          1.09486        2.93150        0.00068
H          1.05198       -2.53547       -0.04742
H         -1.30368       -2.90800        0.12723
H         -2.38019        2.36325        0.48580
H         -3.92482        0.58765       -0.09157
