22
Coordinates from ORCA-job ./opt_b97-3c_parallel
N         -5.65971        2.77907        1.98146
C         -4.52360        2.07655        1.87133
C         -4.02234        1.28257        2.81820
C         -2.88031        0.71404        2.46348
C         -2.63126        1.17324        1.21785
C         -3.60973        2.05750        0.69345
C         -3.60474        2.68134       -0.54433
C         -2.50388        2.44813       -1.45312
C         -1.45254        1.57204       -0.97608
C         -1.54244        0.97780        0.30791
N         -0.46555        0.23580        0.50427
C          0.17016        0.47016       -0.71260
N          1.14751        0.01143       -0.94542
N         -0.37773        1.24766       -1.61795
H         -6.14599        3.11744        1.15310
H         -6.35769        2.52965        2.68067
H         -4.49746        1.11961        3.78341
H         -2.27469        0.03009        3.05292
H         -4.41940        3.34830       -0.81851
H         -2.44498        2.90507       -2.43665
H          1.69931       -0.59651       -0.34114
H          1.68770        0.13185       -1.80181
