23
Coordinates from ORCA-job ./opt_b97-3c_parallel
N          1.12428        0.19234       -0.32626
C          0.16096        0.03210        0.26737
C         -1.24973        0.02037        0.03089
C         -1.97857       -0.25042        1.25281
C         -3.41598       -0.29179        1.16191
C         -4.01443       -0.06768       -0.10282
C         -3.36480        0.19224       -1.28213
C         -1.95993        0.22186       -1.13942
N         -1.42896        0.48600       -2.36856
C         -2.56848        0.59398       -3.15317
N         -2.57433        0.80699       -4.23559
N         -3.69843        0.42152       -2.51490
C         -5.40848       -0.17932        0.17047
N         -6.25382       -0.07592       -0.53205
C         -5.56435       -0.44914        1.50517
C         -4.37260       -0.51709        2.10111
H         -1.47563       -0.41690        2.20216
H         -3.35884        0.90113       -4.88005
H         -1.72965        0.95060       -4.78812
H         -6.58053        0.09801       -1.48107
H         -7.09026       -0.22135        0.03146
H         -6.51749       -0.58904        2.01340
H         -4.19794       -0.71729        3.15608
