17
Coordinates from ORCA-job ./opt_b97-3c_parallel
C         -0.48219        0.93927       -0.49607
C         -0.05055       -0.07906        0.29392
C          1.26260       -0.29220       -0.03539
C          2.33134       -1.08743        0.28618
N          3.58645       -1.09569       -0.21268
C          3.93132       -0.21878       -1.18231
C          2.90314        0.65766       -1.59721
C          1.59301        0.60493       -1.01841
C          0.48997        1.35132       -1.27946
N          3.38298        1.44460       -2.53593
C          4.66242        1.04120       -2.67037
N          4.99874        0.05326       -1.87072
H         -1.48986        1.35019       -0.47787
H         -0.62691       -0.61897        1.03869
H          2.12657       -1.83025        1.07242
H          0.41323        2.15512       -2.00983
H          5.47990        1.38350       -3.32437
