24
Coordinates from ORCA-job ./opt_b97-3c_parallel
N         -4.20690        0.73345        0.07058
C         -3.16375        0.38475        0.09544
C         -2.76717       -1.03058       -0.07513
C         -1.29029       -1.06216        0.02186
N         -0.50577       -2.16794       -0.10433
C          0.83902       -2.05492        0.02000
C          1.41500       -0.83686        0.36015
C          0.62608        0.34409        0.36746
C         -0.80042        0.23261        0.23916
C         -1.93418        1.18553        0.29472
C          1.34224        1.45216       -0.01001
N          1.23522        2.52208       -0.27307
N          2.66920        1.06354       -0.15242
C          2.71750       -0.30499        0.07896
N          3.73378       -0.73670        0.00041
H         -4.78671        1.57009        0.13094
H         -4.85136       -0.05638        0.04839
H         -3.32279       -1.95173       -0.24180
H          1.42429       -2.94721       -0.19662
H         -2.14387        2.24465        0.43280
H          0.26304        2.79946       -0.41781
H          1.76214        3.39611       -0.23268
H          4.68663       -0.37087        0.03552
H          3.83952       -1.74979       -0.07430
