25
Coordinates from ORCA-job ./opt_b97-3c_parallel
N         -4.12418        0.73867       -0.09849
C         -3.18378        0.16853       -0.06431
C         -2.79107       -1.24764       -0.01430
C         -1.32439       -1.24480       -0.00307
C         -0.42600       -2.30814        0.01546
C          0.93644       -2.02633        0.01403
C          1.30299       -0.63309        0.00596
C          0.39388        0.49695        0.00713
C         -1.01411        0.16599       -0.03464
C         -2.02117        1.09651       -0.08278
C          1.41526        1.51527        0.03094
N          1.22485        2.60449        0.05331
N          2.72297        1.07251        0.03001
C          2.63529       -0.29936        0.01323
N          3.67645       -0.67511        0.01738
H         -4.84253        0.01536       -0.11265
H         -4.61241        1.62563       -0.21548
H         -3.47676       -2.09265        0.00181
H         -0.78323       -3.33607        0.02842
H          1.64048       -2.85558        0.02379
H         -1.81832        2.16400       -0.12124
H          0.25239        2.90450        0.13618
H          1.77260        3.46665        0.02946
H          3.71766       -1.69554        0.03629
H          4.64961       -0.36753       -0.01524
