20
Coordinates from ORCA-job ./opt_b97-3c_parallel
N          2.53009        0.27943       -3.24078
C          1.55799        0.65569       -2.86059
N          1.13940        1.32524       -3.95271
C         -0.03218        1.96873       -3.96999
C         -0.45502        1.68212       -2.70165
C          0.46847        0.89236       -1.97646
C          0.26103        0.47788       -0.66826
N          0.63664       -0.07963        0.21525
N         -0.93915        0.88037       -0.06803
C         -1.80021        1.65500       -0.85767
C         -1.64335        2.08411       -2.15124
N         -2.81565        2.54715       -1.78411
C         -3.97744        2.93848       -1.24380
N         -2.94532        2.26033       -0.85471
H          2.99463       -0.62657       -3.13574
H          3.12064        0.78034       -3.91120
H         -0.30967        2.50322       -4.89362
H          0.21841       -0.89427        0.67594
H          1.43959        0.15265        0.80792
H         -4.96927        3.40289       -1.12214
