23
Coordinates from ORCA-job ./opt_b97-3c_parallel
N          3.85285       -0.99433        0.05544
C          2.87881       -0.48240        0.08164
C          2.59402        0.96370        0.08681
C          1.22149        0.91391        0.10007
C          0.45927        2.14494       -0.07879
C         -0.93469        2.19992        0.00939
C         -1.60189        1.02682        0.31642
C         -0.93362       -0.22074        0.29321
C          0.49127       -0.35447        0.19831
C          1.64776       -1.26762        0.14716
C         -1.79052       -1.25440        0.01051
N         -1.91388       -2.32959       -0.20680
N         -3.07323       -0.74116       -0.09366
C         -2.95667        0.62598        0.09123
H          4.34514       -1.88337        0.12890
H          4.56859       -0.26982        0.02837
H          3.12930        1.91112        0.06902
H          1.01229        3.05077       -0.32162
H         -1.47306        3.12573       -0.18267
H          1.62472       -2.35500        0.17481
H         -1.01847       -2.80365       -0.31947
H         -2.62221       -3.06088       -0.15585
H         -3.77563        1.36173        0.07450
