19
Coordinates from ORCA-job ./opt_b97-3c_parallel
N         -3.40131       -0.82707       -0.00302
C         -2.45696       -0.24580       -0.00322
C         -2.37840        1.12447       -0.00155
C         -0.90712        1.01183       -0.00194
N         -0.11776        2.11427       -0.00007
C          1.21828        1.91920       -0.00201
C          1.71282        0.62488       -0.00982
C          0.97973       -0.59302       -0.00651
C         -0.44156       -0.30021       -0.00473
N         -1.43865       -1.19252       -0.00542
C          1.63429       -1.78970        0.00066
N          2.88889       -1.35747        0.00445
C          2.99741        0.02151       -0.00031
H         -4.31129       -0.36462       -0.00282
H         -3.60185       -1.82752       -0.00231
H         -3.26234        1.75975       -0.00007
H          1.86049        2.79951        0.00263
H          1.76738       -2.88239        0.00303
H          3.98563        0.50659        0.00175
