23
Coordinates from ORCA-job ./opt_b97-3c_parallel
N         -4.05737        0.39453        0.00064
C         -2.95550        0.26155       -0.00768
N         -2.55898       -1.07143       -0.04250
C         -1.18333       -1.10594       -0.03491
N         -0.22551       -2.12585       -0.05191
C          1.12293       -1.78667       -0.02394
N          1.59060       -2.79440       -0.04771
C          1.54954       -0.40713        0.02716
C          0.60084        0.61204        0.03906
C         -0.81399        0.27630        0.00334
C         -1.88252        1.12686        0.01926
C          1.36520        1.84117        0.09158
N          1.46378        2.94882        0.11885
N          2.68164        1.58477        0.11202
C          2.82632        0.25228        0.07523
H         -4.58690        1.27031       -0.04333
H         -4.78536       -0.32375        0.06219
H          1.17362       -3.71660        0.11675
H          2.57065       -3.01929       -0.24412
H         -1.88580        2.03883       -0.57576
H          0.82763        3.69766        0.40524
H          2.32884        3.45652       -0.09663
H          3.92006        0.11519        0.08947
