21
Coordinates from ORCA-job ./opt_b97-3c_parallel
N          1.36033        1.91354       -5.88065
C          0.77791        1.82514       -4.94895
N         -0.48150        2.27302       -4.62293
C         -1.36420        2.29388       -3.62020
C         -2.61634        2.61501       -2.96838
C         -2.76352        2.16497       -1.60287
C         -1.71074        1.46827       -1.02277
C         -0.47162        1.14072       -1.64289
C         -0.27337        1.56788       -3.00928
N          0.86308        1.30257       -3.67039
C          0.37994        0.44159       -0.81707
N          1.30627       -0.09096       -0.52123
N         -0.27470        0.27938        0.39622
C         -1.51553        0.88916        0.27287
H          0.99954        2.38955       -6.70902
H          2.29427        1.59010       -6.13575
H         -3.40339        3.16440       -3.47767
H         -3.67239        2.36281       -1.03682
H          1.48913       -0.51914        0.38962
H          2.15378       -0.27121       -1.06020
H         -2.23405        0.89870        1.10841
