21
Coordinates from ORCA-job ./opt_b97-3c_parallel
N         -2.07315        3.15143       -5.02248
C         -1.80507        2.67704       -4.06123
N         -0.57777        2.01636       -4.04950
C         -0.59890        1.59570       -2.79661
C          0.42847        0.81862       -2.13799
C          0.16186        0.49141       -0.74988
N          1.16530       -0.16839       -0.10026
C         -1.07675        0.93083       -0.15710
C         -2.01091        1.67325       -0.85456
C         -1.80947        2.04356       -2.22101
N         -2.58060        2.72632       -3.00191
C         -3.10133        1.95759        0.00620
N         -2.35195        1.34922        0.60451
C         -1.56671        0.74406        1.16116
H         -2.93289        3.66995       -5.19897
H         -1.54253        3.17050       -5.89276
H          1.32894        0.51827       -2.66639
H          0.99788       -0.53257        0.83231
H          1.94171       -0.55014       -0.63044
H         -4.08334        2.42766        0.16862
H         -1.13245        0.22312        2.02804
