21
Coordinates from ORCA-job ./opt_b97-3c_parallel
N          1.90493        2.41233        0.07159
C          0.93830        1.44707        0.02545
C         -0.40147        1.84099        0.01219
C         -1.36011        0.84109       -0.00685
C         -1.13011       -0.55425       -0.00770
C          0.23912       -0.99409       -0.00222
C          1.27682        0.03121        0.00652
C          2.54269       -0.45476        0.00432
C          2.44672       -1.76388        0.00036
C          1.18372       -2.15486       -0.00268
N         -2.24050       -1.37235       -0.00898
C         -3.22023       -0.47727       -0.00918
C         -2.82429        0.79230       -0.00741
H          2.87599        2.14763       -0.05234
H          1.64447        3.38436       -0.05190
H         -0.68793        2.88963        0.02454
H          3.46389        0.12204        0.00649
H          3.29761       -2.44046       -0.00087
H          0.91987       -3.20941       -0.00677
H         -4.19283       -0.99150       -0.00861
H         -3.54835        1.60288       -0.00431
