21
Coordinates from ORCA-job ./opt_b97-3c_parallel
N         -1.50468       -2.51626        0.27202
C         -1.44831       -1.45206       -0.01689
C         -0.55749       -0.49663       -0.43350
C         -1.11449        0.80909       -0.43158
C         -0.32352        1.89184       -0.06283
N         -0.85349        3.11892        0.20743
N          1.01706        1.75212        0.08510
C          1.57975        0.51774       -0.03678
C          0.86085       -0.64149       -0.27475
N          1.67299       -1.70897       -0.30542
C          2.91963       -1.28452       -0.10493
C          2.95324        0.03455        0.06457
C         -2.47697        0.50271       -0.10955
N         -2.67998       -0.84281        0.14832
H         -2.08238       -3.35587        0.23913
H         -0.53437       -2.83413        0.22953
H         -0.21102        3.89706        0.32407
H         -1.78986        3.33694       -0.11464
H          3.91927       -1.74164       -0.04203
H          3.89111        0.55564        0.24443
H         -3.18510        1.34498       -0.08292
