21
Coordinates from ORCA-job ./opt_b97-3c_parallel
N         -1.96405        1.99474        0.00119
C         -1.79892        0.90137        0.00126
C         -0.49297        0.30994        0.00190
C         -1.10273       -1.00712        0.00123
C         -0.16474       -2.12261        0.00129
C          1.22134       -1.95372        0.00147
C          1.71124       -0.65982        0.00168
C          0.92605        0.52127        0.00119
C          1.66101        1.65528        0.00132
C          2.92787        1.26911        0.00156
C          3.06909       -0.05450        0.00189
C         -2.45479       -1.17223        0.00095
N         -2.89474        0.06870        0.00088
H         -2.85404        2.49145        0.00115
H         -1.23844        2.71115        0.00139
H         -0.57082       -3.13261        0.00130
H          1.89449       -2.80900        0.00172
H          1.29362        2.67841        0.00126
H          3.76556        1.96184        0.00181
H          4.05570       -0.51242        0.00213
H         -3.11920       -2.05000        0.00078
