23
Coordinates from ORCA-job ./opt_b97-3c_parallel
N         -4.09625       -0.50259        0.00229
C         -3.01953       -0.12314        0.00248
C         -1.69490        0.41635        0.00270
C         -1.55580        1.83828        0.00370
N         -2.15160        2.77133        0.00440
N         -0.25889        2.19357        0.00380
C          0.49795        1.07760        0.00289
C         -0.40601       -0.04639        0.00218
C         -0.11016       -1.47094        0.00101
C         -1.04537       -2.56716        0.00044
N         -1.79950       -3.42394       -0.00058
C          1.24481       -1.80765        0.00130
C          2.16958       -0.77244        0.00172
C          1.87058        0.62689        0.00216
C          2.99812        1.37824        0.00263
C          4.02429        0.54121        0.00234
C          3.65530       -0.73533        0.00178
H         -3.15483        2.57878        0.00404
H         -2.06179        3.78695        0.00508
H          1.57402       -2.84581        0.00070
H          3.05591        2.46436        0.00321
H          5.06345        0.86397        0.00255
H          4.39638       -1.53219        0.00157
