24
Coordinates from ORCA-job ./opt_b97-3c_parallel
N         -4.62032       -1.70880        0.01186
C         -3.63590       -1.12948        0.01412
C         -2.43668       -0.35688        0.01812
C         -2.45863        1.08477        0.03454
N         -3.20808        1.90277        0.04596
N         -1.20220        1.60600        0.03854
C         -0.33624        0.57172        0.02550
C         -1.04053       -0.62463        0.01289
N         -0.51822       -1.88629       -0.00108
C          0.83254       -2.04844       -0.00124
C          1.65086       -0.92625        0.01823
C          1.09540        0.36978        0.02607
C          2.12627        1.36828        0.00887
N          2.33640        2.45830        0.00065
N          3.31361        0.71039       -0.00277
C          3.05929       -0.66340        0.00256
N          3.93933       -1.33889       -0.00342
H         -3.41782        2.90271        0.07165
H         -4.12604        1.44945        0.03699
H          1.21367       -3.07006       -0.01840
H          3.27321        2.87151        0.00711
H          1.71449        3.27006       -0.00741
H          3.90231       -2.36168       -0.00716
H          4.94099       -1.12873       -0.00072
