22
Coordinates from ORCA-job ./opt_b97-3c_parallel
N          4.50154        1.27067        0.00869
C          3.45724        0.81234        0.00842
C          2.17658        0.18538        0.00683
C          2.03748       -1.24917        0.00805
N          2.67713       -2.15513        0.01023
N          0.73358       -1.62965        0.00492
C         -0.00660       -0.50401        0.00158
C          0.82003        0.60732        0.00341
N          0.43374        1.91606        0.00119
C         -0.89514        2.21920       -0.00205
C         -1.84650        1.20472       -0.00329
C         -1.39580       -0.12695       -0.00245
C         -2.52516       -0.98392       -0.00013
N         -2.80855       -2.05271        0.00192
N         -3.54430       -0.10318       -0.00230
C         -3.33579        1.21425       -0.00463
H          3.65942       -1.86776        0.01096
H          2.70472       -3.17598        0.01151
H         -1.16099        3.27727       -0.00274
H         -2.22991       -2.89230        0.00474
H         -3.77098       -2.39917        0.00169
H         -3.98712        2.10441       -0.00539
