27
Coordinates from ORCA-job ./opt_b97-3c_parallel
N          5.24730       -1.46644        0.03190
C          4.17054       -1.08916       -0.02845
C          2.80724       -0.65433       -0.08532
C          2.38263        0.72430       -0.00524
N          3.04732        1.59889        0.11560
C          1.03169        0.56575       -0.09720
C         -0.00604        1.57977       -0.04179
N          0.34031        2.90547       -0.08734
C         -1.35260        1.18879        0.00751
C         -2.42247        2.16225        0.03732
N         -3.28311        2.91218        0.05919
C         -1.69851       -0.21695       -0.01402
C         -0.62601       -1.16257       -0.14484
C          0.77041       -0.82678       -0.19242
C          1.86125       -1.64740       -0.21457
C         -1.70443       -2.17567       -0.11508
C         -3.05528       -2.04697       -0.00356
N         -4.01843       -2.58265        0.04939
N         -3.00213       -0.67113        0.06545
H          4.05711        1.46178        0.15382
H          2.84268        2.41291        0.69299
H          1.29271        3.14774       -0.34265
H         -0.38243        3.60151       -0.24228
H          1.90266       -2.54467        0.39946
H         -1.23401       -3.15575       -0.16923
H         -4.94642       -2.16368        0.11015
H         -4.16518       -3.59192        0.03335
