27
Coordinates from ORCA-job ./opt_b97-3c_parallel
N          5.06861       -0.21882        0.05043
C          3.93936       -0.06731       -0.03786
C          2.52167        0.12748       -0.10449
C          1.88296        1.42673       -0.08567
N          2.37514        2.41524       -0.02876
C          0.57785        1.04561       -0.12931
C         -0.62860        1.85958       -0.07698
N         -0.55853        3.22605       -0.15279
C         -1.86906        1.20834        0.01477
C         -3.12127        1.92163        0.08667
N         -4.11964        2.47503        0.14717
C         -1.86020       -0.18228        0.01550
C         -0.68112       -0.98173       -0.07673
C          0.55879       -0.37421       -0.13473
C          1.76007       -1.02391       -0.14972
C         -1.06529       -2.35909       -0.06155
C         -0.17574       -3.47400       -0.15355
N          0.51853       -4.38007       -0.20451
C         -2.42032       -2.41582        0.03919
C         -2.94743       -1.19629        0.09011
H          1.79102        3.06627        0.49303
H          3.32352        2.51369        0.32978
H          0.30158        3.63923       -0.49724
H         -1.41939        3.74165       -0.30340
H          1.96522       -1.84283        0.53591
H         -2.99677       -3.33741        0.07681
H         -4.02251       -1.05407        0.17362
