28
Coordinates from ORCA-job ./opt_b97-3c_parallel
N          5.14112        1.83729       -0.01131
C          4.17970        1.22503        0.06728
C          2.95737        0.48087        0.13169
C          2.45499       -0.78079       -0.01617
N          3.44941       -1.66594       -0.20058
C          1.09283       -0.67453        0.04648
C          0.21391       -1.85407        0.08406
N          0.79775       -3.09010        0.18963
C         -1.19051       -1.74741        0.02101
C         -2.05740       -2.90277        0.03035
N         -2.76236       -3.80157        0.03561
C         -1.74236       -0.47413       -0.03139
C         -0.89933        0.64788       -0.00719
C          0.52830        0.66262        0.05362
C          1.86261        1.29245        0.12188
C         -1.67055        1.76664       -0.02184
C         -1.39213        3.16650        0.00158
N         -1.20956        4.29318        0.02280
C         -3.01819        1.26491       -0.06521
N         -4.08431        1.55975       -0.09217
N         -3.03291       -0.08821       -0.06704
H          3.28958       -2.52400       -0.72576
H          4.39611       -1.34491       -0.40091
H          0.21833       -3.90413        0.37061
H          1.78668       -3.14794        0.41478
H          1.94317        2.37890        0.15134
H         -5.01950        1.15337       -0.12988
H         -4.21978        2.57118       -0.06175
