29
Coordinates from ORCA-job ./opt_b97-3c_parallel
N          4.43662       -1.07715       -0.01472
C          3.29597       -1.00291       -0.00068
C          1.86337       -0.95302        0.01291
C          1.09369       -2.18565        0.02235
N          1.48042       -3.22439        0.02078
C         -0.32005       -1.88258        0.03256
C         -1.37655       -2.84955        0.02250
N         -2.17774       -3.66525        0.01013
C         -0.42298       -0.45227        0.02014
C          0.88959        0.11432       -0.00369
C          1.11698        1.49295       -0.02888
C          2.45432        2.04097       -0.02698
N          3.50570        2.48851       -0.01813
C          0.00273        2.33816       -0.04625
N          0.11606        3.70331       -0.06307
C         -1.33974        1.80376       -0.03773
C         -1.52781        0.39499        0.01691
C         -2.87173        0.12666        0.05463
N         -3.67206       -0.94270        0.15985
C         -3.42917        1.34371        0.00681
C         -2.57036        2.35800       -0.05030
H          1.01280       -4.12943        0.01877
H          2.48260       -3.40854        0.01083
H          1.02892        4.11810        0.09406
H         -0.70515        4.26566        0.13048
H         -3.33782       -1.87257       -0.08489
H         -4.65477       -0.88125       -0.09880
H         -4.50582        1.50100        0.02448
H         -2.81203        3.41725       -0.08847
