29
Coordinates from ORCA-job ./opt_b97-3c_parallel
N         -5.09070       -0.98502        0.31283
C         -3.99528       -0.67882        0.19824
C         -2.60875       -0.33355        0.07084
C         -2.12899        1.02959        0.04662
N         -2.74156        1.94782        0.11769
C         -0.78886        0.81135       -0.05911
C          0.29630        1.77166       -0.07680
N          0.02149        3.11362       -0.11189
C          1.62441        1.31646       -0.07174
C          2.73765        2.23883       -0.06141
N          3.63417        2.94648       -0.04798
C          1.98262       -0.09312       -0.07971
C          0.81588       -0.93234       -0.07622
C         -0.58059       -0.58742       -0.06242
C         -1.69928       -1.37192       -0.00957
N         -1.75311       -2.69586       -0.23785
N          1.44693       -2.11724       -0.05815
C          2.76459       -1.87913       -0.07762
N          3.29799       -2.84836       -0.07105
C          3.24560       -0.60512       -0.12205
H         -2.45358        2.83154        0.53400
H         -3.75732        1.90706        0.19711
H          0.77875        3.76755       -0.28533
H         -0.92115        3.41119       -0.34323
H         -2.65143       -3.17726       -0.18392
H         -1.05131       -3.31954        0.15373
H          4.31501       -2.92956       -0.07578
H          2.94200       -3.80333       -0.11634
H          4.01102       -0.26698        0.57463
