28
Coordinates from ORCA-job ./opt_b97-3c_parallel
N         -5.09030       -0.68265        0.22986
C         -3.95562       -0.62879        0.10596
C         -2.52665       -0.57412       -0.01098
C         -1.68750       -1.74992       -0.01949
N         -2.03470       -2.79826        0.05505
C         -0.45643       -1.17301       -0.11487
C          0.84409       -1.81801       -0.09931
N          0.92798       -3.18249       -0.21341
C          2.00278       -1.03529        0.00527
C          3.31454       -1.64654        0.03055
N          4.34328       -2.14483        0.05137
C          1.88913        0.40687        0.04079
C          0.58677        0.98462       -0.14875
C         -0.64309        0.23517       -0.13344
C         -1.93824        0.67293       -0.09697
N         -2.37799        1.92971       -0.27293
C          1.21376        2.27313       -0.05951
C          0.52918        3.52696       -0.05841
N         -0.05107        4.51129       -0.05426
C          2.54559        2.46951        0.13949
N          2.98256        1.23294        0.19916
H         -1.36067       -3.41619        0.50396
H         -2.96135       -3.10349        0.34816
H          1.84106       -3.59723       -0.36903
H          0.11714       -3.68477       -0.55896
H         -3.33835        2.17317       -0.03397
H         -1.78469        2.72517       -0.04150
H          3.29302        3.27161        0.23598
