20
Coordinates from ORCA-job ./opt_b97-3c_parallel
C         -2.91753       -0.90383        0.00119
C         -2.77346        0.41580        0.00088
C         -1.44210        0.66231        0.00063
C         -0.70142        1.90954        0.00024
C          0.70590        1.90906       -0.00004
C          1.44588        0.66192        0.00034
C          0.68953       -0.54124        0.00068
C         -0.68647       -0.54091        0.00091
C         -1.76046       -1.56267        0.00121
C          1.76299       -1.56343        0.00044
C          2.92033       -0.90508        0.00003
C          2.77696        0.41451       -0.00023
H         -3.88513       -1.39941        0.00176
H         -3.57108        1.15453        0.00123
H         -1.24360        2.85132        0.00007
H          1.24843        2.85138       -0.00046
H         -1.72745       -2.64898        0.00145
H          1.72922       -2.64996        0.00057
H          3.88776       -1.40124       -0.00060
H          3.57467        1.15308       -0.00086
