24
Coordinates from ORCA-job ./opt_b97-3c_parallel
N          4.33369       -1.80602       -0.06527
C          3.29347       -1.33743       -0.12924
C          1.98623       -0.75216       -0.16735
C          1.73393        0.66878       -0.09447
N          2.47996        1.47992       -0.00111
C          0.37299        0.66948       -0.14184
C         -0.54128        1.79040       -0.02116
N         -0.12476        3.08898       -0.11230
C         -1.90596        1.54266        0.14905
C         -2.44052        0.20069        0.19296
C         -1.48518       -0.79932       -0.09353
C         -0.05548       -0.68006       -0.21342
C          0.92541       -1.62891       -0.25624
N         -2.09259       -1.99082       -0.14753
C         -2.95904       -1.31109        0.06111
C         -3.72257       -0.20181        0.36001
H          2.04762        2.19800        0.57778
H          3.41171        1.31288        0.37495
H          0.80529        3.26599       -0.47765
H         -0.82405        3.81287       -0.23530
H         -2.61332        2.36544        0.22666
H          0.86959       -2.51296        0.37436
H         -3.69817       -2.12826        0.10260
H         -4.50582        0.13423       -0.31476
