25
Coordinates from ORCA-job ./opt_b97-3c_parallel
N          4.08486       -2.27341       -0.10471
C          3.13476       -1.64087       -0.04904
C          1.91546       -0.88537        0.01228
C          2.25929        0.45032       -0.00158
N          3.28770        1.31619       -0.02994
C          0.78701        0.62164        0.00738
C          0.09074        1.84007        0.01139
N          0.73324        3.04186        0.03768
N         -1.26301        1.90005       -0.00193
C         -1.95258        0.73575       -0.01606
C         -1.32260       -0.49352       -0.00902
C          0.07025       -0.55398        0.00499
C          0.87371       -1.78847        0.01550
N         -2.13123       -1.55886       -0.02416
C         -3.25736       -0.73906       -0.04137
N         -4.08215       -1.48119       -0.06243
C         -3.42322        0.62549       -0.04042
H          4.22949        0.98075       -0.22937
H          3.18168        2.22242       -0.48272
H          0.18972        3.87958        0.21739
H          1.71784        3.05792        0.28372
H          1.01657       -2.86950        0.02273
H         -5.05963       -1.20888       -0.16927
H         -4.08552       -2.49964        0.00126
H         -4.40575        1.09385       -0.05644
