26
Coordinates from ORCA-job ./opt_b97-3c_parallel
N         -4.49145       -1.48982        0.03138
C         -3.49076       -0.93933       -0.00146
C         -2.22179       -0.27241       -0.01283
C         -2.20645        1.10249       -0.03252
N         -3.12495        2.07346       -0.17376
C         -0.84726        1.24476        0.00786
C         -0.10780        2.49887       -0.00164
C          1.29555        2.55685        0.00527
C          2.08708        1.34906        0.03405
C          1.35106        0.13242        0.03972
C         -0.03053        0.07335        0.01204
C         -0.97655       -0.99303        0.00256
N         -0.74399       -2.07242        0.02123
C          2.44977       -0.79431        0.01142
C          2.48685       -2.22223        0.00258
N          2.47844       -3.36524       -0.00411
C          3.64996       -0.14018       -0.00649
C          3.43109        1.16785        0.00320
H         -2.91730        3.02503        0.12088
H         -4.10330        1.88184        0.03526
H         -0.67916        3.42372       -0.01445
H          1.79842        3.52096       -0.00157
H         -1.53038       -2.71955       -0.00080
H          0.10358       -2.63725       -0.00223
H          4.63028       -0.61217       -0.02274
H          4.18773        1.94881       -0.00262
