19
Coordinates from ORCA-job ./opt_b97-3c_parallel
C         -2.98630        0.89576       -0.00102
C         -2.85348       -0.42897       -0.00044
C         -1.39872       -0.74443       -0.00060
C         -0.66008       -1.91520       -0.00031
C          0.78549       -1.84288       -0.00064
C          1.38989       -0.52298       -0.00131
C          0.55670        0.66025       -0.00155
C         -0.87312        0.57165       -0.00124
C         -1.82500        1.53120       -0.00149
C          1.78765        1.48055       -0.00203
C          2.94211        0.83204       -0.00206
N          2.76535       -0.46949       -0.00160
H         -3.94786        1.40320       -0.00106
H         -3.72459       -1.07955       -0.00002
H         -1.16469       -2.87791        0.00024
H          1.42746       -2.71832       -0.00046
H         -1.66733        2.60692       -0.00203
H          1.75308        2.56694       -0.00237
H          3.94632        1.28145       -0.00241
