24
Coordinates from ORCA-job ./opt_b97-3c_parallel
N          4.49455       -1.02105        0.00205
C          3.42046       -0.64009       -0.00289
C          2.04789       -0.18748        0.00934
C          1.67389        1.12988       -0.00148
N          2.49816        2.18485       -0.00356
C          0.30793        1.01474       -0.00165
C         -0.61990        2.15764       -0.00180
C         -2.00784        1.95991       -0.00149
C         -2.45074        0.65094       -0.00110
C         -1.65272       -0.51613       -0.00100
C         -0.23263       -0.33264       -0.00130
C          0.97284       -1.12049       -0.00075
N          0.84760       -2.21790       -0.00164
N         -2.28510       -1.74000       -0.00058
C         -3.54925       -1.34104       -0.00040
C         -3.74601       -0.02616       -0.00065
H          2.18794        3.15435       -0.00158
H          3.51250        2.09193       -0.00207
H         -0.28845        3.19900       -0.00212
H         -2.71896        2.78747       -0.00154
H         -0.05748       -2.68876       -0.00079
H          1.55602       -2.94495       -0.00096
H         -4.21747       -2.21512       -0.00007
H         -4.75361        0.38137       -0.00053
