25
Coordinates from ORCA-job ./opt_b97-3c_parallel
N          1.31717        0.09228       -0.16477
C          0.17635        0.08571       -0.11082
C         -1.25605        0.10295       -0.07143
C         -1.95988        0.77943        0.99494
N         -1.72793        1.36513        1.90198
C         -3.27949        0.49053        0.58517
C         -4.51750        0.86111        1.20777
C         -5.69227        0.43834        0.59405
C         -5.68849       -0.34527       -0.62535
C         -4.40853       -0.67215       -1.17398
C         -3.21863       -0.27240       -0.59414
C         -1.96462       -0.54666       -1.07130
N         -1.54493       -1.10971       -2.21922
N         -4.64975       -1.38223       -2.27221
C         -6.03547       -1.42040       -2.29395
N         -6.58118       -1.94163       -3.09935
N         -6.66831       -0.81415       -1.32608
H         -0.71495        1.46138        1.96900
H         -2.11954        1.89467        2.67900
H         -4.56585        1.44860        2.12253
H         -6.65249        0.69881        1.03481
H         -2.08868       -1.83905       -2.67541
H         -0.55750       -1.33672       -2.34123
H         -7.59489       -1.99090       -3.19734
H         -6.19113       -2.39539       -3.92471
