24
Coordinates from ORCA-job ./opt_b97-3c_parallel
N          4.83158       -1.71208       -0.00362
C          3.71915       -1.44659       -0.00216
C          2.60243       -0.54776       -0.00072
C          2.52858        0.83928       -0.00030
N          3.34739        1.58114       -0.00101
C          1.13386        1.14025        0.00138
C          0.52855        2.45342        0.00233
N         -0.83029        2.48208        0.00390
C         -1.57687        1.34947        0.00437
C         -0.97926        0.06438        0.00345
C          0.38992        0.00978        0.00188
C          1.26952       -1.11417        0.00074
C         -1.98121       -0.86316        0.00427
C         -1.95677       -2.29000        0.00399
N         -2.26912       -3.38775        0.00410
C         -3.21202       -0.09858        0.00590
N         -4.30971       -0.26589        0.00712
N         -2.95360        1.23232        0.00594
H          3.48380        2.59004       -0.00091
H          4.28612        1.17576       -0.00216
H          1.10071        3.39505        0.00190
H          1.00407       -2.16719        0.00083
H         -4.65347       -1.22990        0.00727
H         -5.15322        0.31142        0.00820
