25
Coordinates from ORCA-job ./opt_b97-3c_parallel
N          4.49178        1.61343        0.01798
C          3.47788        1.08612        0.03285
C          2.18750        0.46511        0.04176
C          2.16299       -0.91649        0.05737
N          3.00262       -1.96379        0.11182
C          0.68183       -1.04094        0.04350
C         -0.05798       -2.22555        0.05466
N         -1.41611       -2.22306        0.05036
C         -2.05584       -1.02641        0.03999
C         -1.37497        0.17765        0.03124
C          0.02025        0.16039        0.02871
C          0.95884        1.22941        0.02461
N          0.74995        2.31619        0.00575
N         -2.13914        1.27625        0.03049
C         -3.29850        0.50710        0.03893
N         -4.06156        1.31408        0.05130
C         -3.52035       -0.84923        0.04099
H          2.73071       -2.87289       -0.25808
H          3.99786       -1.83416       -0.06773
H          0.42424       -3.20238        0.06883
H          1.72209        2.62661       -0.00018
H          0.18631        3.16419       -0.01042
H         -3.95315        2.32816        0.05810
H         -5.06496        1.14220        0.11014
H         -4.52312       -1.27280        0.04521
