26
Coordinates from ORCA-job ./opt_b97-3c_parallel
N          1.33210       -0.10988        0.18385
C          0.18935       -0.12416        0.16175
C         -1.24157       -0.10459        0.15838
C         -1.87121       -0.73140       -0.90106
N         -1.57365       -1.45283       -1.99424
C         -3.25770       -0.41788       -0.46582
C         -4.44371       -0.78039       -1.11968
N         -5.66976       -0.45105       -0.63061
C         -5.67833        0.24776        0.53021
C         -4.56575        0.63569        1.22797
C         -3.31946        0.29321        0.70945
C         -2.00901        0.54626        1.19847
N         -1.75186        1.10201        2.11963
N         -4.84546        1.31002        2.35536
C         -6.24962        1.32858        2.33429
N         -6.51711        1.87807        3.25686
C         -6.82029        0.69508        1.23963
C         -8.19556        0.51777        0.88796
N         -9.05717        0.90479        1.53367
H         -2.21362       -1.49631       -2.78516
H         -0.62075       -1.46742       -2.35686
H         -4.43275       -1.34532       -2.05107
H         -0.73782        1.02481        2.03332
H         -1.92092        1.59416        2.99541
H         -6.22310        2.34972        4.11203
H         -7.53924        1.88808        3.26474
