27
Coordinates from ORCA-job ./opt_b97-3c_parallel
N          3.87930       -1.90362        0.85460
C          2.79880       -1.74411        0.51823
C          1.44624       -1.58751        0.07830
C          0.64722       -2.68576        0.16207
C         -0.51509       -1.99571       -0.05801
C         -1.65922       -2.85151       -0.01311
N         -2.59458       -3.50730        0.01823
C         -0.57668       -0.60031       -0.41974
C          0.83183       -0.39205       -0.41254
C          1.41924        0.91527       -0.20521
C          2.80260        1.21311       -0.50295
N          3.89710        1.45595       -0.72424
C          0.53430        1.95475        0.14151
N          0.96056        3.24764        0.30254
C         -0.89168        1.71547        0.30771
C         -1.32211        0.32917        0.29467
C         -2.70720        0.63110        0.00523
N         -3.54881       -0.07451        0.10279
C         -2.99541        1.95321       -0.11614
C         -1.87748        2.62209        0.06784
H          0.88198       -3.58581       -0.40360
H          1.89962        3.48761        0.00203
H          0.26680        3.98677        0.32329
H         -3.43676       -1.08699        0.06618
H         -4.54981        0.10979        0.05991
H         -3.97130        2.39056       -0.32545
H         -1.76968        3.70317        0.03973
