30
Coordinates from ORCA-job ./opt_b97-3c_parallel
N          5.09581       -0.33882       -0.60465
C          3.99998       -0.62296       -0.44208
C          2.64635       -1.00389       -0.18468
C          2.31993       -2.33104       -0.26922
C          0.96998       -2.22133       -0.03576
C          0.37628       -3.51739        0.06993
N         -0.13028       -4.53769        0.16646
C          0.43274       -0.94280        0.33783
C          1.58281       -0.14218        0.24205
C          1.53009        1.29877        0.13197
C          2.69688        2.15319        0.12216
N          3.60859        2.84266        0.10474
C          0.23851        1.87555        0.16073
N          0.08956        3.23913        0.21994
C         -0.99497        1.07617        0.19628
C         -0.81271       -0.34790        0.23576
C         -2.12106       -0.87284        0.01642
N         -2.40176       -1.94160        0.00052
C         -2.91150        0.32292       -0.08789
C         -4.33560        0.26087       -0.25115
N         -5.47174        0.18688       -0.35935
C         -2.27075        1.53974       -0.00622
N         -2.83575        2.75502       -0.13808
H          2.92517       -3.08238        0.23676
H         -0.79490        3.60443        0.55369
H          0.91856        3.80407        0.37565
H         -3.40894       -2.09539       -0.00698
H         -1.96827       -2.85272        0.14200
H         -2.28414        3.53601       -0.48737
H         -3.77676        2.84016       -0.51899
