26
Coordinates from ORCA-job ./opt_b97-3c_parallel
N          4.75978       -0.57426        0.00187
C          3.63332       -0.76083        0.00139
C          2.21798       -0.93796        0.00097
C          1.74240       -2.22090       -0.00958
C          0.38570       -2.04813       -0.00105
C         -0.56635       -3.11346        0.00005
N         -1.38140       -3.91627        0.00103
C          0.01164       -0.66453        0.00122
C          1.21280        0.08811        0.00171
C          1.20431        1.47713       -0.00103
C          2.40675        2.26688       -0.00162
N          3.35052        2.91221       -0.00197
C         -0.05529        2.08380       -0.00295
C         -1.23291        1.22435       -0.00236
C         -1.36623       -0.23521       -0.00011
C         -2.80421       -0.29595       -0.00183
N         -3.23290       -1.31649       -0.00126
N         -3.45087        0.92240       -0.00342
C         -2.45099        1.86892       -0.00359
N         -2.96489        2.85311       -0.00493
H          2.30457       -3.15323        0.00783
H         -0.11106        3.17137       -0.00395
H         -2.75048       -2.22114       -0.00032
H         -4.22417       -1.55542       -0.00155
H         -3.93854        3.16251       -0.00557
H         -2.42043        3.71837       -0.00534
