29
Coordinates from ORCA-job ./opt_b97-3c_parallel
N         -3.61355        3.08687       -0.14874
C         -3.05218        2.09418       -0.08399
C         -2.30689        0.87470        0.00461
C         -2.90751       -0.42982        0.05650
N         -3.90033       -0.90938        0.02937
C         -1.68907       -1.18321        0.16764
C         -1.34103       -2.57057        0.16158
N         -1.00422       -3.66300        0.15176
C         -0.38654       -0.56983        0.17922
C         -0.87104        0.78447        0.05937
C         -0.11493        2.01978        0.04382
C          1.27463        1.92556        0.11780
N          2.01379        3.07389        0.17997
C          1.83944        0.59920        0.15381
C          1.06120       -0.57416        0.15482
C          1.89791       -1.64572        0.00504
N          1.98208       -2.74531       -0.08976
N          3.20274       -1.14567       -0.12999
C          3.19388        0.21320       -0.07459
N          4.18599        0.67268       -0.24149
H         -4.28906       -1.85015        0.07765
H         -4.69549       -0.27151       -0.00701
H         -0.56957        3.00935        0.01588
H          1.50070        3.95211        0.20915
H          2.88766        3.06407        0.69428
H          1.04267       -3.14892       -0.03227
H          2.60745       -3.55208       -0.11566
H          5.19261        0.54298       -0.35490
H          4.01344        1.66166       -0.43361
