26
Coordinates from ORCA-job ./opt_b97-3c_parallel
N         -4.21755        2.21477        0.19562
C         -3.40530        1.41105        0.17608
C         -2.36706        0.43074        0.12682
C         -2.73579       -0.89203        0.20136
C         -1.50072       -1.47842        0.11150
C         -1.33254       -2.89649        0.15578
N         -1.22319       -4.03414        0.16886
C         -0.43865       -0.53781       -0.02381
C         -0.97872        0.76753       -0.01890
C         -0.24042        1.94752       -0.03658
C          1.15303        1.82933       -0.12034
N          1.91663        2.96035       -0.17935
C          1.72349        0.49261       -0.15766
C          0.93005       -0.67451       -0.10241
C          1.72213       -1.76683       -0.03702
C          2.97587       -1.30479       -0.02468
C          3.03042        0.07524       -0.07399
N          4.02737        0.54329       -0.00879
H         -3.57776       -1.27329       -0.37295
H         -0.72937        2.91797        0.00825
H          2.87951        2.87003       -0.48665
H          1.45241        3.84645       -0.34470
H          1.41853       -2.80903       -0.01314
H          3.84955       -1.95364        0.01661
H          4.89930        0.37675        0.48960
H          3.59264        1.35968        0.41813
