27
Coordinates from ORCA-job ./opt_b97-3c_parallel
N          5.00701       -1.53440       -0.59147
C          4.09252       -0.89368       -0.34812
C          2.96023       -0.09079       -0.00177
C          3.00787        1.25817       -0.17813
C          1.66222        1.45778       -0.00267
C          1.36814        2.85680       -0.02809
N          1.10081        3.96798       -0.03503
C          0.74921        0.42408        0.42471
C          1.72631       -0.60583        0.49422
C          1.39370       -1.98806        0.26629
C          0.06672       -2.28304       -0.06099
C         -0.95552       -1.25104       -0.14629
C         -0.43610        0.09553       -0.22833
C         -1.66822        0.82105       -0.12202
N         -1.73693        1.92435       -0.13180
C         -2.68160       -0.18830       -0.03740
C         -4.07616        0.12704        0.07274
N         -5.18195        0.40524        0.14434
C         -2.29857       -1.50009       -0.07232
N         -2.93213       -2.68199       -0.16558
H          3.74571        1.85852        0.35187
H          2.11723       -2.79744        0.33301
H         -0.21863       -3.31516       -0.25011
H         -1.12443        2.73488       -0.05413
H         -2.69266        2.26892       -0.05485
H         -2.48114       -3.53344        0.16205
H         -3.92541       -2.74578        0.05110
