22
Coordinates from ORCA-job ./opt_b97-3c_parallel
N          4.44985       -0.91146       -0.00060
C          3.39969       -0.46523       -0.05922
C          2.07103        0.05935       -0.11071
C          1.91158        1.42342       -0.17080
C          0.54477        1.49865       -0.10547
C         -0.12795        2.75948       -0.12094
N         -0.63934        3.78138       -0.11372
C         -0.09317        0.22449       -0.03193
C          0.90894       -0.78027       -0.03241
C          0.67963       -2.15650       -0.01859
C         -0.65571       -2.57232        0.01902
C         -1.63185       -1.57446        0.03905
C         -1.41986       -0.16059        0.02440
C         -2.53472        0.60172        0.01140
C         -3.53099       -0.27151        0.01493
C         -3.12288       -1.54216        0.02992
H          2.53842        2.09128        0.41674
H          1.49791       -2.87216       -0.04452
H         -0.92222       -3.62634        0.01984
H         -2.61618        1.68466        0.00305
H         -4.57880        0.01904        0.00436
H         -3.83835       -2.36088        0.02748
