19
Coordinates from ORCA-job ./opt_b97-3c_parallel
C          2.96068       -0.92736       -0.00121
C          2.85566        0.39980       -0.00117
C          1.40773        0.74253       -0.00130
C          0.68600        1.92280       -0.00083
C         -0.70685        1.82788       -0.00064
C         -1.42323        0.56084       -0.00047
C         -0.58228       -0.61972       -0.00014
C          0.85255       -0.56286       -0.00184
C          1.78662       -1.54031       -0.00139
C         -1.77478       -1.41611       -0.00082
N         -3.01048       -0.81055       -0.00080
C         -2.78150        0.48266       -0.00045
H          3.91186       -1.45416       -0.00107
H          3.73986        1.03243       -0.00095
H          1.18539        2.88841       -0.00055
H         -1.30709        2.73465       -0.00017
H          1.60865       -2.61282       -0.00138
H         -1.61881       -2.50516       -0.00111
H         -3.69778        1.09133       -0.00037
