23
Coordinates from ORCA-job ./opt_b97-3c_parallel
N          4.28656        0.22937       -0.00001
C          3.21033        0.61505        0.00047
C          1.88145        1.14520        0.00084
C          1.63337        2.47178        0.00039
C          0.32764        2.67617        0.00041
C         -0.44549        1.39955        0.00099
C          0.63326        0.43503        0.00122
C          0.52401       -1.01079        0.00132
C          1.59051       -1.98822        0.00155
N          2.41936       -2.77535        0.00178
C         -0.80030       -1.47712        0.00128
N         -1.11622       -2.81174        0.00128
C         -1.89289       -0.52884        0.00131
C         -1.79034        0.88092        0.00110
C         -2.99219        1.52517        0.00084
N         -3.78837        0.45327        0.00085
C         -3.27785       -0.79369        0.00109
H          2.38995        3.25323       -0.00013
H         -0.08448        3.68222       -0.00008
H         -2.08466       -3.11042        0.00101
H         -0.37661       -3.50721        0.00096
H         -3.24838        2.59501        0.00058
H         -3.98411       -1.63705        0.00098
