24
Coordinates from ORCA-job ./opt_b97-3c_parallel
N         -4.48985       -0.09401       -0.00967
C         -3.41320       -0.47725       -0.00557
C         -2.05053       -0.91089       -0.00041
C         -1.77920       -2.25249       -0.00020
C         -0.46497       -2.43036        0.00002
C          0.08212       -1.18915       -0.00010
C         -0.85672       -0.10399       -0.00028
C         -0.55979        1.26120       -0.00123
C         -1.58133        2.27255       -0.00194
N         -2.38325        3.08717       -0.00259
C          0.79220        1.60995       -0.00165
C          1.70653        0.55823       -0.00114
C          1.42229       -0.84510       -0.00069
C          2.49208       -1.67567       -0.00094
C          3.55381       -0.87943       -0.00159
C          3.14202        0.42752       -0.00181
N          3.79471        1.31677       -0.00214
H         -2.52218       -3.04753       -0.00005
H          0.06004       -3.38265        0.00038
H          1.11779        2.64741       -0.00245
H          2.49020       -2.76285       -0.00055
H          4.58909       -1.21399       -0.00195
H          4.81203        1.34606       -0.00233
H          3.47156        2.28261       -0.00236
