28
Coordinates from ORCA-job ./opt_b97-3c_parallel
N          4.13469        2.60872       -0.01545
C          3.30348        1.82378       -0.01487
C          2.28925        0.81302       -0.02229
C          2.38738       -0.63437       -0.02647
N          3.37066       -1.14108       -0.03992
C          1.07533       -1.23851       -0.02987
C          0.82861       -2.64719       -0.00892
N          0.68918       -3.78211        0.01180
C          0.13672       -0.15484       -0.02271
C          0.87350        1.08055       -0.01256
C          0.26881        2.34147       -0.00039
C         -1.12045        2.41057        0.01727
C         -1.80315        1.20124        0.02120
C         -1.25957       -0.12470       -0.02178
C         -2.16160       -1.15441       -0.06172
N         -2.14772       -2.49103       -0.16128
C         -3.33673       -0.53068       -0.01814
C         -3.18304        0.82346        0.03403
N         -4.02757        1.53348        0.03153
H          3.51664       -2.14719       -0.10353
H          4.28966       -0.70350       -0.07945
H          0.86321        3.25211       -0.00064
H         -1.64456        3.36293        0.03154
H         -1.32095       -3.02372        0.10071
H         -2.96762       -3.03495        0.09963
H         -4.30094       -1.03636       -0.04481
H         -3.83910        2.53377        0.01556
H         -5.03932        1.42140        0.01435
