23
Coordinates from ORCA-job ./opt_b97-3c_parallel
N          4.64656        1.18699        0.22858
C          3.73463        0.51374        0.08433
C          2.57027       -0.29607       -0.08473
C          2.60492       -1.66773       -0.04349
C          1.37587       -2.19576       -0.02758
C          0.46204       -1.03478       -0.06211
C          1.20580        0.11890       -0.09629
N          0.69528        1.37789       -0.11755
C         -0.66206        1.47580       -0.10651
N         -1.18149        2.73845       -0.13146
C         -1.47215        0.33108       -0.06586
C         -0.91863       -0.91988       -0.05050
C         -1.97118       -1.87866        0.02111
N         -3.18933       -1.19562        0.07643
C         -2.89140        0.16842        0.02105
N         -3.85862        0.69018        0.12534
H          3.52173       -2.25390       -0.02413
H          1.23735       -3.27392        0.00720
H         -0.51798        3.50183       -0.23388
H         -2.09202        2.88305       -0.55063
H         -1.89192       -2.97656        0.03905
H         -3.62254        1.61951        0.47319
H         -4.85793        0.56904        0.28774
