24
Coordinates from ORCA-job ./opt_b97-3c_parallel
N         -4.37089        1.30224        0.00872
C         -3.22915        1.34136        0.00451
C         -1.80096        1.34349       -0.00057
C         -1.21226        2.57725       -0.00047
N          0.11034        2.42272       -0.00035
C          0.26324        1.09282       -0.00042
C         -0.88342        0.25760       -0.00065
C         -0.92161       -1.13744       -0.00053
C         -2.18125       -1.84008       -0.00054
N         -3.17234       -2.40788       -0.00049
C          0.31838       -1.80683       -0.00027
N          0.39207       -3.17391        0.00001
C          1.52519       -1.00174       -0.00016
C          1.51525        0.40070       -0.00019
C          2.79905        0.85991       -0.00005
N          3.33805        1.82365       -0.00006
N          3.63675       -0.26400        0.00004
C          2.89079       -1.40193       -0.00004
H         -1.68409        3.57257       -0.00045
H          1.28473       -3.65465       -0.00030
H         -0.46281       -3.72483       -0.00037
H          2.68317        2.60777       -0.00010
H          4.27311        2.23010        0.00002
H          3.31522       -2.41773       -0.00001
