24
Coordinates from ORCA-job ./opt_b97-3c_parallel
N         -4.65857       -0.65310       -0.00218
C         -3.53250       -0.84353       -0.00154
C         -2.11736       -1.03557       -0.00031
C         -1.67486       -2.32922       -0.00136
N         -0.34289       -2.32640       -0.00074
C         -0.03212       -1.02439        0.00035
C         -1.07869       -0.06397        0.00049
C         -0.95097        1.32671        0.00152
C         -2.09339        2.20031        0.00150
N         -2.98903        2.90836        0.00161
C          0.35082        1.84625        0.00259
C          1.41400        0.93761        0.00256
C          1.29845       -0.48702        0.00149
C          2.49722       -1.15060        0.00180
N          2.84551       -2.20160        0.00142
N          3.48356       -0.16942        0.00303
C          2.84477        1.06821        0.00339
N          3.47735        1.97662        0.00438
H         -2.30551       -3.23257       -0.00269
H          0.52413        2.92084        0.00344
H          3.67392       -2.79850        0.00166
H          2.04746       -2.84260        0.00046
H          4.49172        2.09615        0.00521
H          3.09876        2.92556        0.00471
