24
Coordinates from ORCA-job ./opt_b97-3c_parallel
N          4.76599       -0.38062        0.01639
C          3.70258        0.03878        0.02479
C          2.36054        0.52407        0.03520
C          2.18044        1.87667       -0.01209
N          0.87587        2.12753       -0.03538
C          0.29456        0.87554        0.01154
C          1.16221       -0.23637        0.06595
C          0.81923       -1.57723        0.05642
C         -0.54220       -1.88695        0.03573
N         -0.90247       -3.20553        0.03573
C         -1.53179       -0.81630        0.01518
C         -1.11451        0.58696       -0.01363
C         -2.47219        1.08492       -0.00646
N         -2.56404        2.18389       -0.01862
C         -3.45776        0.15418        0.01987
C         -2.87598       -1.02315        0.03337
H          2.74814        2.81843       -0.04023
H          1.58275       -2.35173        0.06590
H         -1.86679       -3.45242       -0.15853
H         -0.18710       -3.90892       -0.11039
H         -3.28273        2.90406       -0.03045
H         -1.66397        2.66348       -0.02465
H         -4.52874        0.34403        0.02860
H         -3.38434       -1.98368        0.05559
