21
Coordinates from ORCA-job ./opt_b97-3c_parallel
N          4.65405       -0.36516       -0.00084
C          3.57567        0.01116       -0.00112
C          2.21177        0.43722       -0.00147
C          1.84092        1.75345       -0.00184
N          0.51505        1.87481       -0.00211
C          0.13249        0.54835       -0.00186
C          1.12085       -0.47404       -0.00144
C          0.92101       -1.85279       -0.00116
C         -0.40938       -2.28610       -0.00130
C         -1.40078       -1.30015       -0.00170
C         -1.17617        0.11434       -0.00200
C         -2.35091        0.82543       -0.00238
N         -2.72068        1.86525       -0.00269
N         -3.39908       -0.08083       -0.00236
C         -2.83154       -1.34494       -0.00195
H          2.54015        2.60428       -0.00192
H          1.75316       -2.55405       -0.00085
H         -0.65831       -3.34503       -0.00110
H         -3.58514        2.40636       -0.00298
H         -1.95424        2.54080       -0.00271
H         -3.44185       -2.26162       -0.00185
