24
Coordinates from ORCA-job ./opt_b97-3c_parallel
N         -4.94691        0.75622        0.00048
C         -3.86975        0.36906        0.00156
C         -2.51511       -0.07891       -0.00129
C         -2.17835       -1.48537        0.00207
N         -1.10538       -1.82967        0.00487
C         -0.43605       -0.65834       -0.00763
C         -1.27714        0.46475       -0.00702
C         -0.93751        1.85921       -0.00215
C          0.44147        2.10155        0.00470
C          1.31065        0.99942        0.01067
C          0.98446       -0.40651        0.00014
C          2.04529       -1.25576       -0.02161
N          2.07514       -2.59571       -0.09544
C          3.11716       -0.47222        0.00272
C          2.73940        0.84107        0.02075
N          3.45880        1.67803        0.00809
H         -2.91290       -2.30402        0.00391
H         -1.63682        2.69171       -0.00222
H          0.82783        3.11776        0.00680
H          2.91979       -3.14205        0.06024
H          1.24043       -3.16364        0.04524
H          4.14633       -0.82629       -0.01343
H          4.47683        1.69110        0.00200
H          3.14995        2.64807        0.00130
