23
Coordinates from ORCA-job ./opt_b97-3c_parallel
N          4.88261       -0.04426        0.00189
C          3.75639       -0.23643        0.01822
C          2.34658       -0.46373        0.00167
C          1.78143       -1.79747       -0.01575
N          0.67071       -1.99814       -0.03192
C          0.16800       -0.74599       -0.03189
C          1.12468        0.23554       -0.00670
N          0.92469        1.57599        0.03292
C         -0.37229        1.96952        0.04566
N         -0.62551        3.30789        0.09537
C         -1.39996        1.02640        0.01661
C         -1.23051       -0.38981       -0.03694
C         -2.37976       -1.10753       -0.07947
N         -2.60926       -2.42666       -0.15548
C         -3.33273       -0.18297       -0.04043
C         -2.88354        1.06902        0.01740
H          2.44221       -2.67717       -0.01316
H         -1.57108        3.63696       -0.06218
H          0.14294        3.95422       -0.04713
H         -1.87202       -3.08698        0.08668
H         -3.50068       -2.81526        0.14589
H         -4.39322       -0.42426       -0.05955
H         -3.57025        1.91089        0.04986
