22
Coordinates from ORCA-job ./opt_b97-3c_parallel
N          5.37609        0.51857        0.00988
C          4.28820        0.16760        0.01591
C          2.94211       -0.30877        0.02466
C          2.76110       -1.66754        0.03556
N          1.45175       -1.96113        0.02809
C          0.81073       -0.77854        0.01104
C          1.66662        0.28307        0.00758
N          1.31542        1.58809       -0.01835
C         -0.02439        1.81918       -0.04270
C         -0.97408        0.78286       -0.04047
C         -0.55694       -0.53173       -0.01169
C         -1.61982       -1.54903       -0.01751
C         -2.39363       -0.40834       -0.04529
C         -3.77853       -0.78113        0.01134
N         -4.87248       -1.11064        0.05940
C         -2.43922        0.96979       -0.07792
N         -3.07975        2.15010       -0.14091
H          3.47168       -2.50754        0.04220
H         -0.32553        2.86454       -0.06724
H         -2.03763       -2.55495       -0.01287
H         -2.63608        2.99870        0.20395
H         -4.07420        2.20132        0.07416
