24
Coordinates from ORCA-job ./opt_b97-3c_parallel
N          5.52924       -0.41295       -0.00226
C          4.42890       -0.10486        0.00404
C          3.06470        0.31857        0.01257
C          2.81357        1.66586        0.02077
N          1.49130        1.89320        0.02390
C          0.91164        0.67827        0.01549
C          1.82154       -0.33866        0.00783
N          1.53992       -1.66282       -0.01446
C          0.21487       -1.97286       -0.03174
C         -0.78736       -0.99000       -0.02486
C         -0.43751        0.33996        0.00391
C         -1.60048        1.15486        0.00190
N         -1.66708        2.25733        0.03169
C         -2.61010        0.11984       -0.03233
C         -4.01177        0.41370       -0.02824
N         -5.13217        0.63975        0.00595
C         -2.25639       -1.21658       -0.06044
N         -2.84376       -2.42269       -0.13978
H          3.48554        2.53729        0.01917
H         -0.02818       -3.03330       -0.05461
H         -0.80246        2.79610        0.00198
H         -2.43752        2.92250       -0.00112
H         -3.83113       -2.52649        0.08872
H         -2.35414       -3.26038        0.16738
