26
Coordinates from ORCA-job ./opt_b97-3c_parallel
N         -6.00989        0.83132        0.00163
C         -4.90368        0.54599       -0.00397
C         -3.51033        0.23277       -0.01029
C         -2.85416       -0.94547       -0.18919
C         -1.52798       -0.66166       -0.03534
C         -0.49307       -1.69373        0.00114
N         -0.88862       -3.00508        0.04354
C          0.87379       -1.36737       -0.00162
C          1.91041       -2.37124        0.00993
N          2.74836       -3.14733        0.01664
C          1.21820       -0.02276       -0.01263
C          0.28932        1.04938        0.00388
C         -1.10845        0.72345        0.00755
C         -2.52073        1.16640        0.01643
N          0.84109        2.31285        0.01088
C          2.14990        2.01366        0.00414
N          2.53014        3.05514        0.01013
C          2.47466        0.67234       -0.00534
C          3.86853        0.35956       -0.00805
N          4.99226        0.15591       -0.00976
H         -3.28973       -1.87614        0.16860
H         -0.19690       -3.74700       -0.01078
H         -1.87117       -3.24599       -0.03556
H         -2.75619        2.22840        0.03445
H          2.30209        4.04962        0.00228
H          3.55023        3.00421        0.00299
