25
Coordinates from ORCA-job ./opt_b97-3c_parallel
N         -4.73668       -1.54204        0.01491
C         -3.68497       -1.09232        0.04663
C         -2.35285       -0.56201        0.06119
C         -2.42223        0.79841        0.24117
C         -1.07944        0.81539        0.02810
C         -0.22618        1.98997       -0.00673
N         -0.79400        3.23174       -0.05593
C          1.17224        1.88305       -0.01601
C          1.86590        0.61286       -0.00668
C          0.97860       -0.51351       -0.02661
C         -0.40314       -0.43396       -0.01925
C         -1.38417       -1.53485        0.00826
C          1.90185       -1.65144       -0.01137
C          3.24531       -1.04683        0.00670
N          4.18415       -1.62252        0.02282
C          3.22668        0.44403        0.00439
H         -3.08906        1.42258       -0.35036
H         -1.79139        3.32321        0.10089
H         -0.20673        4.04676        0.08377
H          1.79248        2.77664       -0.04687
H         -1.62151       -2.59658        0.01556
H          1.58361       -2.69122       -0.00759
H          5.14801       -1.30028       -0.03570
H          4.20450       -2.63649       -0.06533
H          3.89840        1.29940        0.01109
