29
Coordinates from ORCA-job ./opt_b97-3c_parallel
N         -5.54940       -0.34965        0.04821
C         -4.43573       -0.09397        0.07855
C         -3.03335        0.19870        0.08206
C         -2.66223        1.51316        0.17798
C         -1.31482        1.33166        0.03512
C         -0.32582        2.40686        0.00266
N         -0.73998        3.70876       -0.03035
C          1.05008        2.13533       -0.00590
C          1.42611        0.74851        0.00795
C          0.53339       -0.34025       -0.01145
C         -0.81923       -0.01900       -0.02203
C         -2.01162       -0.80678       -0.02143
N         -2.13488       -1.89986       -0.11165
C          1.21690       -1.60901       -0.03041
C          0.81914       -2.98128        0.02568
N          0.47039       -4.06938        0.06758
C          2.60664       -1.16784       -0.01840
N          3.51450       -1.80051       -0.00303
C          2.76519        0.27096       -0.00957
C          3.90032        1.14469       -0.01488
N          4.82571        1.81570       -0.01512
H         -3.18917        2.28833       -0.37368
H         -0.05695        4.44437        0.11562
H         -1.71532        3.91844        0.15152
H          1.76339        2.95650       -0.03700
H         -3.07051       -2.29020       -0.01112
H         -1.48186       -2.67336        0.00135
H          4.51369       -1.60326        0.00752
H          3.41208       -2.81411        0.01881
