28
Coordinates from ORCA-job ./opt_b97-3c_parallel
N         -5.55005        0.60461       -0.06139
C         -4.43848        0.34153       -0.09856
C         -3.03409        0.04816       -0.11611
C         -2.62096       -1.25617       -0.22319
C         -1.28344       -1.04744       -0.02480
C         -0.24521       -2.08025        0.01343
N         -0.60595       -3.39805        0.03454
C          1.12282       -1.75730        0.03944
C          1.47205       -0.36062        0.02317
C          0.50474        0.65794        0.00995
C         -0.83481        0.31381        0.01872
C         -2.03825        1.07933       -0.00728
N         -2.06402        2.17727        0.09349
C          1.27516        1.90868       -0.01670
C          2.73787        1.61376       -0.00513
N          3.43959        2.46172       -0.03322
C          2.80732        0.16308        0.02846
C          3.98672       -0.64589        0.06060
N          4.94865       -1.26091        0.09073
H         -3.15200       -2.06294        0.27477
H         -1.56599       -3.64866       -0.16973
H          0.11295       -4.10218       -0.10862
H          1.86916       -2.54816        0.07295
H         -1.37861        2.90709        0.28066
H         -2.98048        2.61954        0.10509
H          0.75572        2.86388       -0.04699
H          4.41432        2.16883       -0.04470
H          3.43344        3.47364       -0.14474
