27
Coordinates from ORCA-job ./opt_b97-3c_parallel
N          4.21507       -2.70685        0.01859
C          3.40357       -1.90163        0.02571
C          2.41887       -0.86113        0.03184
C          2.20705        0.57378        0.03565
N          3.20031        1.06892        0.02256
C          1.05471        1.45589        0.05032
C          0.87677        2.87596        0.03978
N          0.70480        4.00582        0.01954
C          0.28765        0.24248        0.02234
C          0.98690       -0.96005        0.01175
N          0.38339       -2.18218       -0.02119
C         -0.97269       -2.22608       -0.04694
C         -1.72307       -1.05453       -0.03814
C         -1.10490        0.16554       -0.00121
C         -2.14551        1.14593       -0.00544
N         -2.25148        2.24345        0.03520
C         -3.35072        0.48515       -0.04770
C         -3.18506       -0.84217       -0.06961
N         -4.18448       -1.73583       -0.11767
H          4.11391        0.61846       -0.00247
H          3.36714        2.07366       -0.00235
H         -1.43502       -3.21070       -0.07722
H         -3.04676        2.87856        0.00419
H         -1.41561        2.82422       -0.00116
H         -4.32736        0.96927       -0.06609
H         -4.02621       -2.69958        0.16962
H         -5.12501       -1.46988        0.16740
