24
Coordinates from ORCA-job ./opt_b97-3c_parallel
N         -4.79706       -0.18788        0.05699
C         -3.66368       -0.04363        0.08523
C         -2.24110        0.11215        0.08877
C         -1.69628        1.35037        0.20543
C         -0.38876        0.97073        0.05946
C          0.68917        1.95526       -0.00683
N          0.41109        3.29387       -0.03837
C          2.03044        1.56625       -0.03027
C          2.30554        0.21120       -0.00740
C          1.36397       -0.83741        0.02123
C         -0.01959       -0.44011        0.00680
C         -1.34529       -0.98847       -0.03225
N         -1.42866       -2.08380       -0.14242
N          1.85338       -2.12760        0.03141
C          3.16112       -1.89993        0.01147
C          3.51330       -0.61792       -0.01358
H         -2.10434        2.18936       -0.35350
H         -0.53177        3.60347        0.16920
H          1.17038        3.95347        0.09256
H          2.83506        2.29708       -0.06673
H         -0.59207       -2.64932       -0.00196
H         -2.23165       -2.68853        0.01850
H          3.68306       -2.86837        0.01845
H          4.56034       -0.32660       -0.03316
