26
Coordinates from ORCA-job ./opt_b97-3c_parallel
N          5.71406       -0.42308        0.03885
C          4.57256       -0.46660        0.07286
C          3.13934       -0.50395        0.07900
C          2.76496       -1.81398        0.24047
C          1.48567       -1.38800        0.07552
C          0.33079       -2.27029        0.05510
C         -0.98899       -1.79719        0.01017
C         -2.01930       -2.80535       -0.01090
N         -2.82393       -3.61652       -0.02500
C         -1.10788       -0.35626       -0.03102
C         -0.02473        0.55314       -0.04814
C          1.25846        0.02265       -0.00126
C          2.55264        0.73450        0.01281
C         -0.44437        1.93137       -0.06674
C          0.37149        3.10706       -0.03814
N          1.04935        4.02672       -0.00869
C         -1.89061        1.77433       -0.03482
N         -2.58371        2.63579       -0.02341
C         -2.32268        0.39469       -0.00899
C         -3.64662       -0.15144        0.02759
N         -4.71686       -0.55155        0.05286
H          3.17183       -2.60780       -0.38387
H          0.53514       -3.33950        0.07247
H          3.13721        1.65309       -0.00357
H         -2.39471        3.63648        0.00006
H         -3.59630        2.52520       -0.00080
