26
Coordinates from ORCA-job ./opt_b97-3c_parallel
N         -5.46698       -0.72615       -0.05551
C         -4.32507       -0.74006       -0.08680
C         -2.89562       -0.71994       -0.10342
C         -2.19111       -1.87345       -0.22643
C         -0.94092       -1.33553       -0.08952
C          0.20447       -2.23753       -0.02953
C          1.52849       -1.78600        0.00052
C          2.62768       -2.71509        0.03976
N          3.51443       -3.43492        0.07030
C          1.73952       -0.41477       -0.00714
C          0.63489        0.45808       -0.03143
C         -0.76139        0.11643       -0.03824
C         -2.14754        0.48596        0.00740
N         -2.28318        1.57507        0.11554
C          1.10869        1.73569       -0.02532
C          0.52921        3.04077       -0.03577
N          0.10621        4.10136       -0.04125
C          2.53898        1.58134       -0.00056
N          3.48272        2.15907        0.01532
N          2.89368        0.27664        0.01264
H         -2.48530       -2.76809        0.31943
H         -0.00280       -3.30690       -0.01971
H         -3.29973        1.49680        0.07886
H         -2.07506        2.57104        0.05390
H          3.29109        3.16199        0.01758
H          4.49881        2.06821        0.01402
