30
Coordinates from ORCA-job ./opt_b97-3c_parallel
N         -4.74100        0.67802        0.11876
C         -3.67853        0.26222        0.06931
C         -2.35757       -0.28571        0.03493
C         -2.10066       -1.70725        0.07901
N         -2.76666       -2.58994        0.13576
C         -0.73972       -2.31258        0.05433
C         -0.15863       -1.07953       -0.01275
C         -0.97345        0.10663       -0.00240
C         -0.48014        1.41786       -0.02301
C         -1.38413        2.54663       -0.02616
N         -2.08677        3.44675       -0.03323
C          0.90468        1.61199       -0.06307
N          1.45225        2.86568       -0.15256
C          1.73961        0.43724       -0.05957
C          1.21724       -0.87452       -0.04203
C          2.23645       -1.77831        0.02069
N          2.31358       -3.11818       -0.01394
C          3.34192       -1.02452        0.09561
C          3.09744        0.33042        0.07088
N          3.96319        1.00926        0.17113
H         -2.96073       -3.58484        0.23378
H         -3.67061       -2.11862        0.15599
H         -0.18363       -3.24389        0.07215
H          2.38849        2.94878       -0.53360
H          0.82314        3.65079       -0.28601
H          3.19513       -3.57000       -0.24976
H          1.56479       -3.65915       -0.44111
H          4.34377       -1.45053        0.14755
H          3.49155        1.86217        0.46833
H          4.92136        1.06931        0.51040
