21
Coordinates from ORCA-job ./opt_b97-3c_parallel
N         -4.38244        1.07536       -0.03060
C         -3.31313        0.67295       -0.06828
C         -1.98265        0.13399       -0.08978
C         -1.96385       -1.23840       -0.04380
C         -0.49061       -1.15370       -0.03779
C          0.42858       -2.20608        0.01827
C          1.78852       -1.89935        0.03784
C          2.11333       -0.55076        0.00595
C          1.19944        0.54127       -0.05234
C         -0.15289        0.23929       -0.09288
C         -1.11600        1.19536       -0.18350
C          1.76418        1.76867       -0.08086
C          3.06901        1.53952       -0.04097
C          3.37619        0.24225        0.00867
H         -2.87376       -1.83547       -0.02295
H          0.09172       -3.23906        0.05096
H          2.55128       -2.67247        0.07912
H         -1.14887        2.02238        0.52329
H          1.26519        2.73383       -0.12071
H          3.81484        2.33064       -0.04856
H          4.41149       -0.08796        0.04314
