22
Coordinates from ORCA-job ./opt_b97-3c_parallel
N         -4.90007        1.19635       -0.07757
C         -3.86352        0.71513       -0.09763
C         -2.55525        0.13097       -0.08488
C         -2.55077       -1.23967       -0.02449
C         -1.07784       -1.14313       -0.00965
C         -0.16783       -2.19416        0.03235
C          1.25932       -1.96506        0.03101
C          1.69123       -0.58664       -0.00871
C          0.69309        0.45170       -0.04962
C         -0.72552        0.23292       -0.06452
C         -1.68367        1.18241       -0.21813
C          1.94323        1.24560       -0.04348
C          3.28636        1.02237       -0.02433
N          4.28836        1.48354       -0.02029
N          3.04697       -0.33536        0.00355
H         -3.47126       -1.82189       -0.01445
H         -0.52398       -3.22195        0.06382
H          1.99683       -2.76259        0.06258
H         -1.72286        2.04574        0.44498
H          1.53932        2.25671       -0.05903
H          5.18024        0.98913       -0.01727
H          4.51487        2.47778       -0.01730
