20
Coordinates from ORCA-job ./opt_b97-3c_parallel
N          4.93015        0.73673       -0.00787
C          3.83732        0.40147       -0.00525
C          2.46135        0.02125        0.00068
C          1.83514       -1.17354       -0.17900
C          0.49728       -0.96126       -0.04241
C         -0.44928       -2.06418       -0.00698
C         -1.82802       -1.84847        0.00633
C         -2.26090       -0.53380        0.00380
C         -1.44699        0.62057        0.00124
C         -0.02869        0.38802        0.00242
C          1.37799        0.84419        0.01861
N         -2.07737        1.84670        0.00481
C         -3.34937        1.46638        0.00770
C         -3.55519        0.15245        0.00843
H          2.29689       -2.10089        0.15255
H         -0.06722       -3.08240       -0.00067
H         -2.53195       -2.67682        0.01923
H          1.49145        1.92550        0.04449
H         -3.96490        2.37832        0.00942
H         -4.56291       -0.25454        0.01089
