20
Coordinates from ORCA-job ./opt_b97-3c_parallel
N          4.87890       -1.01625       -0.00285
C          3.82611       -0.57375        0.04359
C          2.51730       -0.00510        0.06471
C          2.28486        1.35054        0.16028
C          0.91744        1.41062        0.06643
C          0.00454        2.52676        0.03499
N         -1.39361        2.43728       -0.00828
C         -1.87674        1.17072       -0.01847
C         -1.06395        0.01792       -0.01381
C          0.35074        0.17902        0.02346
C          1.34236       -0.81991        0.01856
C         -1.82950       -1.10261       -0.01887
C         -1.90309       -2.52935       -0.00798
N         -1.43200       -3.56806       -0.00051
C         -3.17536       -0.58085       -0.02271
N         -3.19848        0.77622       -0.02626
H          2.94880        2.09985       -0.26699
H          0.37233        3.56443        0.05485
H          1.24770       -1.90052       -0.03497
H         -4.20975       -0.95960       -0.01887
