22
Coordinates from ORCA-job ./opt_b97-3c_parallel
N          5.44030        0.01612        0.00064
C          4.31412       -0.18253        0.00056
C          2.88240       -0.40115        0.00024
C          2.51556       -1.73376       -0.00002
C          1.07316       -1.44603       -0.00017
C          0.02414       -2.37742       -0.00029
N         -1.28292       -2.00161       -0.00016
C         -1.50333       -0.66630        0.00005
C         -0.52266        0.28871        0.00016
C          0.81716       -0.10196        0.00007
C          2.05189        0.70752        0.00026
C         -1.19056        1.55352        0.00034
C         -0.58777        2.84774       -0.00028
N         -0.07095        3.86696       -0.00080
C         -2.56027        1.39511        0.00029
C         -2.75194        0.03109        0.00007
C         -4.03773       -0.59454        0.00024
N         -5.05237       -1.12551        0.00054
H          3.21951       -2.56111       -0.00000
H          0.21127       -3.44942       -0.00033
H          2.43290        1.72414        0.00032
H         -3.32468        2.17031        0.00025
