22
Coordinates from ORCA-job ./opt_b97-3c_parallel
N          4.71234        1.31914       -0.05182
C          3.67911        0.82909       -0.07402
C          2.39618        0.18870       -0.07112
C          2.48629       -1.18083       -0.01204
C          1.01188       -1.16149        0.00637
C          0.14657       -2.25000        0.03783
N         -1.19432       -2.08856        0.03328
C         -1.68018       -0.82472        0.00144
C         -0.87639        0.31949       -0.03220
C          0.56226        0.18840       -0.04489
C          1.46473        1.18630       -0.22761
C         -1.73725        1.52570       -0.04214
C         -3.13637        1.04436       -0.02123
N         -4.09403        1.58776       -0.01986
C         -3.10869       -0.43453        0.00388
H          3.44077       -1.70413       -0.00799
H          0.51235       -3.27464        0.06349
H          1.45338        2.06691        0.41234
H         -1.40973        2.56220       -0.05936
H         -4.25692        2.59250       -0.00370
H         -5.00797        1.13885       -0.00413
H         -3.82446       -1.25300        0.02509
