28
Coordinates from ORCA-job ./opt_b97-3c_parallel
N          4.19376        1.42452        0.22638
C          3.33296        0.67703        0.13800
C          2.28995       -0.29504        0.02817
C          2.54737       -1.72417       -0.00943
N          3.37371       -2.45359        0.01669
C          1.19068       -2.33226       -0.08854
C          0.17340       -1.27485       -0.12153
C          0.87012       -0.04953       -0.05264
C          0.19502        1.23831       -0.02723
C          0.86494        2.52037       -0.04363
N          1.37596        3.54318       -0.05756
C         -1.22194        1.20936       -0.06016
N         -1.95538        2.36516       -0.14002
C         -1.96573       -0.05019       -0.07554
C         -1.20318       -1.25592       -0.13425
C         -2.27065       -2.27701       -0.09688
C         -3.42071       -1.61871        0.00022
C         -3.30331       -0.29485        0.03004
N         -4.35690        0.52675        0.15947
H          4.20996       -1.87161        0.05186
H          3.68973       -3.42023       -0.02675
H          0.81809       -3.35390       -0.12167
H         -2.90321        2.29898       -0.49537
H         -1.45794        3.23692       -0.28928
H         -2.24832       -3.36389       -0.10874
H         -4.37996       -2.12799        0.06568
H         -5.24208        0.16646        0.51021
H         -4.22333        1.45586        0.55482
