26
Coordinates from ORCA-job ./opt_b97-3c_parallel
N          4.49681        0.22427       -0.05676
C          3.36196        0.36527       -0.04512
C          1.94641        0.56263        0.00218
C          1.29017        1.85036        0.03004
N          1.70341        2.87780        0.03771
C         -0.17923        2.09695        0.06162
C         -0.38819        0.74852        0.03911
C          0.71634       -0.18413        0.01062
C          0.59310       -1.58209       -0.00595
C          1.73948       -2.45546       -0.02811
N          2.63910       -3.15939       -0.04421
C         -0.68129       -2.13652       -0.00203
C         -1.74083       -1.24759        0.01870
C         -1.66521        0.18051        0.04099
C         -2.88231        0.80338        0.06488
N         -3.32399        2.07040        0.09234
C         -3.74940       -0.20460        0.05538
C         -3.20822       -1.41629        0.02907
H          1.61469        3.89190        0.05916
H          2.70274        2.67656        0.02273
H         -0.96813        2.83912        0.09092
H         -0.84232       -3.21231       -0.01529
H         -2.73714        2.82623       -0.25387
H         -4.28750        2.28047       -0.16066
H         -4.82732       -0.05546        0.06962
H         -3.82999       -2.30817        0.02000
