25
Coordinates from ORCA-job ./opt_b97-3c_parallel
N         -3.90125       -1.97263        0.03465
C         -2.76358       -1.86489        0.02487
C         -1.34705       -1.68363        0.01044
C         -0.49778       -0.62800       -0.00200
C          0.76279       -1.23398       -0.01460
C          1.87652       -0.40074       -0.03449
C          3.20601       -0.96749       -0.04791
N          4.26374       -1.40187       -0.05454
C          1.65540        0.99175       -0.03933
N          2.71696        1.86053       -0.06453
C          0.29780        1.54933       -0.02152
C         -0.92579        0.73587       -0.00286
C         -1.82409        1.86508        0.00139
N         -2.88417        1.56367        0.01575
C         -1.23926        3.08521       -0.01296
C          0.05974        2.89290       -0.02699
N          0.66501       -2.58130       -0.00738
C         -0.43644       -2.80224        0.00544
H          2.55344        2.84294        0.12422
H          3.65291        1.49339        0.07381
H         -3.67457        2.20530        0.01112
H         -3.27231        0.62149        0.01735
H         -1.74745        4.04691       -0.01440
H          0.80656        3.68267       -0.04222
H         -0.79372       -3.84313        0.01264
