30
Coordinates from ORCA-job ./opt_b97-3c_parallel
N          3.69389        2.21514        0.10404
C          2.99398        1.31068        0.07730
C          2.17459        0.14185        0.03887
C          0.73587        0.03135        0.06168
C          0.33060       -1.33861       -0.00063
C         -0.98751       -1.79173       -0.00321
C         -1.26991       -3.20676       -0.04307
N         -1.48085       -4.33021       -0.07200
C         -2.00265       -0.82843        0.05559
N         -3.32296       -1.18742        0.13500
C         -1.61125        0.56551        0.08605
C         -0.26261        0.99844        0.10345
C         -0.20808        2.36151        0.08209
N          0.74262        3.30328        0.16128
C         -1.49346        2.73337        0.00122
C         -2.38680        1.68628       -0.01711
N         -3.45577        1.94651       -0.11798
C          1.60654       -2.07497       -0.05269
C          2.78364       -1.16951       -0.02439
N          3.72622       -1.73997       -0.05988
H         -3.54182       -2.16598        0.28691
H         -3.97931       -0.50141        0.49366
H          1.71632        3.08066       -0.03494
H          0.56143        4.24870       -0.16991
H         -1.80068        3.77904       -0.01863
H         -4.10336        2.65076       -0.46584
H         -3.79392        1.04415       -0.44807
H          1.57082       -3.16209       -0.10512
H          4.44114       -1.01984        0.03207
H          4.19711       -2.63788        0.03677
