25
Coordinates from ORCA-job ./opt_b97-3c_parallel
N         -4.29764        0.79694       -0.05556
C         -3.44448        0.03772       -0.06421
C         -2.33522       -0.86172       -0.07495
C         -1.05826       -0.18056       -0.14784
C         -0.31348       -1.42038        0.01711
C          1.13550       -1.34515       -0.00082
C          1.91048       -2.56418        0.04997
N          2.53691       -3.51899        0.08152
C          1.76886       -0.10009       -0.12265
N          3.13379        0.01277       -0.19831
C          0.95945        1.09095       -0.20536
C         -0.44943        1.12487       -0.18352
C         -0.98436        2.37402       -0.05795
N          0.16261        3.04524        0.08727
C          1.35776        2.42319        0.04521
N          2.19067        3.11929        0.24478
C         -1.04902       -2.55824        0.13653
C         -2.31159       -2.20719        0.07936
H          3.66645       -0.85407       -0.20003
H          3.52389        0.76885       -0.74933
H         -2.04139        2.68306       -0.06503
H          2.39797        4.09882        0.43619
H          3.03086        2.59417        0.48863
H         -0.67424       -3.57405        0.24934
H         -3.17284       -2.86958        0.13723
