24
Coordinates from ORCA-job ./opt_b97-3c_parallel
N         -3.26296        2.41300        0.00247
C         -2.16453        2.09594        0.00177
C         -0.77602        1.76210        0.00099
C         -0.16183        0.46679        0.00132
C          1.26179        0.67694        0.00082
C          2.21416       -0.34192        0.00074
C          3.62484       -0.05462       -0.00063
N          4.74236        0.18299       -0.00872
C          1.74698       -1.65636        0.00153
C          0.36700       -1.83796        0.00227
C         -0.65547       -0.83463        0.00173
C         -1.94234       -1.28248        0.00149
N         -3.17740       -0.76253       -0.00226
C         -1.77936       -2.60277        0.00273
C         -0.51770       -3.02329        0.00313
C          1.40353        2.15692        0.00001
C          0.19767        2.71244        0.00016
H          2.42788       -2.50448        0.00155
H         -3.37621        0.23604        0.00480
H         -4.02834       -1.32112        0.00581
H         -2.61606       -3.29828        0.00266
H         -0.27860       -4.08391        0.00329
H          2.30284        2.76811       -0.00069
H          0.01512        3.78479       -0.00034
