25
Coordinates from ORCA-job ./opt_b97-3c_parallel
N          3.19023       -2.07892       -0.00710
C          2.05228       -1.97869       -0.00694
C          0.63860       -1.76618       -0.00660
C          0.06965       -0.44960       -0.00492
C         -1.33565       -0.47402       -0.00270
C         -2.07225        0.69712        0.00077
C         -3.51134        0.68034        0.00356
N         -4.65349        0.67231       -0.00478
C         -1.36016        1.90327        0.00150
C          0.09975        1.98923       -0.00067
C          0.86167        0.74767       -0.00297
C          2.08674        1.49673       -0.00097
N          3.13398        1.14381       -0.00070
N          2.01450        2.87146        0.00006
C          0.73815        3.19366       -0.00090
C         -1.67135       -1.90682       -0.00390
C         -0.43576       -2.73931       -0.00655
N         -0.47546       -3.83994       -0.00764
H         -1.90318        2.84749        0.00402
H          4.05912        1.57173        0.00007
H          3.29757        0.13462       -0.00224
H          0.47865        4.26368        0.00106
H         -2.70897       -2.23586       -0.00266
H          0.38327       -4.38877       -0.00863
H         -1.24487       -4.50800       -0.00896
