23
Coordinates from ORCA-job ./opt_b97-3c_parallel
N         -4.09569       -0.85078        0.00009
C         -3.23406       -0.10177       -0.00109
C         -2.11400        0.78621       -0.00246
C         -0.81409        0.14604       -0.00307
C         -0.11082        1.42460       -0.00288
C          1.34112        1.40364       -0.00292
C          2.15675        2.59158       -0.00280
N          2.82533        3.51773       -0.00276
C          2.00045        0.17512       -0.00337
C          1.23522       -0.98320       -0.00364
C         -0.17861       -1.15035       -0.00262
C         -0.73577       -2.39554       -0.00240
N          0.37104       -3.13134       -0.00291
C          1.52981       -2.37606       -0.00353
N          2.45062       -2.98556       -0.00391
C         -0.88512        2.54218       -0.00222
C         -2.13514        2.14116       -0.00196
H          3.08783        0.12357       -0.00357
H         -1.80319       -2.66664       -0.00193
H          2.54201       -4.00112       -0.00410
H          3.40118       -2.61651       -0.00426
H         -0.54385        3.57478       -0.00197
H         -3.01897        2.77564       -0.00150
