27
Coordinates from ORCA-job ./opt_b97-3c_parallel
N          3.75127       -1.72081        0.03188
C          3.06673       -0.80558        0.02050
C          2.26004        0.37303       -0.00030
C          0.83257        0.47064        0.04376
C          0.49534        1.86093       -0.01250
C         -0.80223        2.35933       -0.00524
C         -1.85350        1.44248        0.06204
N         -3.13599        1.90964        0.12344
C         -1.52175        0.02982        0.10200
C         -0.19416       -0.45993        0.09985
C         -0.18675       -1.82101        0.09142
N          0.74880       -2.78020        0.13962
C         -1.48733       -2.14465        0.05189
C         -2.34103       -1.06308        0.04176
N         -3.42482       -1.26512       -0.02248
C          1.81311        2.54301       -0.08154
C          2.77816        1.62920       -0.06945
H         -0.98617        3.43084       -0.04102
H         -3.85566        1.27917        0.46077
H         -3.27672        2.90243        0.27544
H          1.71929       -2.57056       -0.08531
H          0.54181       -3.71859       -0.19628
H         -1.83480       -3.17757        0.04681
H         -4.14343       -1.86597       -0.42112
H         -3.60584       -0.32135       -0.36024
H          2.04682        3.60325       -0.13747
H          3.84103        1.85695       -0.11219
