23
Coordinates from ORCA-job ./opt_b97-3c_parallel
N          1.31127       -0.22394       -0.05851
C          0.18997       -0.07404       -0.21019
C         -1.22442        0.07197       -0.33584
C         -1.99014       -0.55941        0.70821
C         -3.30957       -0.23146        0.29106
C         -4.41237       -0.70646        1.09415
C         -3.99729       -1.47481        2.25761
C         -2.68249       -1.81327        2.77081
C         -1.71900       -1.24343        1.88891
C         -0.58105       -1.79963        2.55083
N          0.51737       -1.91925        2.62698
N         -0.99178       -2.54798        3.64102
C         -2.30905       -2.59343        3.82791
N         -3.44464        0.51317       -0.85850
C         -2.14784        0.66140       -1.18221
N         -2.07587        1.25876       -2.11258
H         -5.44057       -0.48589        0.81875
H         -4.92538       -1.75858        2.75163
H          1.02797       -2.41735        3.35887
H          1.24182       -1.55094        2.00688
H         -2.81889       -3.12976        4.64427
H         -2.83140        1.65983       -2.67055
H         -1.21618        1.53585       -2.59053
