22
Coordinates from ORCA-job ./opt_b97-3c_parallel
N         -3.29860       -2.49315        0.00143
C         -2.78242       -1.47332        0.00916
C         -2.10060       -0.21846        0.02354
C         -0.81002        0.19151        0.04451
C         -0.93480        1.59065        0.03403
C          0.22573        2.43796       -0.01056
C          1.40713        1.59870       -0.03952
C          1.49207        0.14490       -0.04135
C          0.30518       -0.70790        0.02096
C          1.06330       -1.99163        0.01973
C          2.36689       -1.78968       -0.04146
C          2.68078       -0.51322       -0.08302
N          3.93996       -0.05532       -0.15255
N         -2.22054        1.99466        0.00162
C         -2.81095        1.03784        0.00838
H          0.21662        3.52335       -0.00890
H          2.22014        2.32032       -0.01984
H          0.65086       -2.99680        0.05894
H          3.09759       -2.59521       -0.05688
H          4.15712        0.89326        0.14571
H          4.71841       -0.65663        0.11002
H         -3.91110        1.05731       -0.01156
