23
Coordinates from ORCA-job ./opt_b97-3c_parallel
N         -2.47118        2.97330        0.00109
C         -2.01507        1.92714        0.00005
C         -1.83105        0.51187        0.00082
C         -0.50718       -0.04902        0.00150
C         -0.79516       -1.44095        0.00198
C          0.28736       -2.41504        0.00259
C          1.65282       -1.89206        0.00305
C          1.86502       -0.46507        0.00328
C          0.78591        0.43955        0.00156
C          1.44047        1.71016        0.00157
N          2.82140        1.55031        0.00206
C          3.07901        0.18240        0.00291
N          4.16988        0.00663        0.00280
N         -2.12769       -1.76783        0.00279
C         -2.75356       -0.52613        0.00196
N         -3.85477       -0.63832        0.00195
H          0.04975       -3.47586        0.00298
H          2.38151       -2.70156        0.00287
H          1.07687        2.75016        0.00127
H          4.63320       -0.90291        0.00252
H          4.92621        0.69339        0.00195
H         -4.44304        0.19680        0.00159
H         -4.50535       -1.42633        0.00217
