23
Coordinates from ORCA-job ./opt_b97-3c_parallel
N          1.22124       -0.04660        0.77776
C          0.10235       -0.06987        0.55015
C         -1.28634       -0.07795        0.22791
C         -1.89221        0.32849       -1.01315
C         -3.27786        0.08747       -0.68733
N         -4.33499        0.30456       -1.50044
C         -4.19820        0.78110       -2.75835
N         -5.24031        0.83809       -3.10858
C         -2.86250        1.04749       -3.22371
C         -1.77711        0.80958       -2.35874
C         -0.61571        1.19264       -3.08711
N          0.40764        1.14629       -2.68143
C         -1.06079        1.60925       -4.31730
C         -2.39144        1.52668       -4.40386
N         -3.52215       -0.40309        0.57140
C         -2.28504       -0.51218        1.15478
H         -5.17025        1.26519       -4.03129
H         -6.23283        0.68345       -2.93695
H          1.05313        0.93811       -1.91973
H          0.98418        1.48416       -3.45177
H         -0.41632        1.96195       -5.12096
H         -2.99093        1.79438       -5.27127
H         -2.00592       -0.86130        2.16121
