28
Coordinates from ORCA-job ./opt_b97-3c_parallel
N          3.27076        2.53885       -0.25099
C          2.74450        1.53398       -0.10726
C          2.04785        0.29957        0.07137
C          0.72286       -0.26552        0.02414
C          0.67470       -1.64954       -0.01596
N         -0.49715       -2.34167       -0.06497
C         -1.66143       -1.64311       -0.06421
N         -2.81487       -2.36756       -0.12887
C         -1.66458       -0.24791       -0.00960
C         -0.47959        0.43476        0.02524
C         -0.80243        1.82427        0.07626
N         -0.24987        2.77783        0.01869
C         -2.17135        1.93709        0.08470
C         -2.76954        0.74072        0.03611
N         -4.10098        0.57027        0.05186
C          2.07402       -2.07738        0.01155
C          2.92919       -0.86088        0.06811
N          3.93240       -1.31903        0.09134
H         -3.66173       -1.88482       -0.40728
H         -2.74254       -3.35506       -0.34605
H         -0.53865        3.75410        0.03608
H          0.75923        2.77566       -0.11987
H         -2.71447        2.88036        0.13588
H         -4.49105       -0.32345        0.34435
H         -4.70068        1.30461        0.42283
H          2.02868       -3.16469       -0.01530
H          4.56529       -2.10823       -0.03090
H          4.48978       -0.47331       -0.01778
