23
Coordinates from ORCA-job ./opt_b97-3c_parallel
N          2.92119        2.69844       -0.00210
C          2.43536        1.66368       -0.00659
C          1.79144        0.38847       -0.01628
C          0.42896       -0.07888       -0.00584
C          0.26845       -1.45398        0.00451
N         -0.96013       -2.04161        0.02102
C         -2.06027       -1.24354        0.02624
N         -3.27382       -1.86509        0.06057
C         -1.94912        0.14843        0.01104
C         -0.71145        0.71329       -0.00355
C         -0.90735        2.11025       -0.00981
N         -2.28249        2.30594       -0.00014
C         -3.01597        1.18655        0.01235
C          1.63150       -1.98686       -0.00250
C          2.57695       -0.83708       -0.01433
N          3.58410       -1.28699       -0.01632
H         -4.12093       -1.32034       -0.05427
H         -3.31761       -2.87268       -0.04475
H         -0.33629        3.05070       -0.01549
H         -4.11073        1.07884        0.02116
H          1.54387       -3.07143        0.00399
H          4.20844       -2.09128       -0.00700
H          4.17182       -0.45496       -0.00747
