27
Coordinates from ORCA-job ./opt_b97-3c_parallel
N         -4.48369       -1.94965       -0.07366
C         -3.59287       -1.23526       -0.03813
C         -2.45482       -0.37194        0.01101
C         -2.22337        1.05119        0.08131
N         -3.01262        1.82454        0.12970
C         -0.91167        1.75580        0.11430
C         -0.26908        0.55305        0.05160
C         -1.04902       -0.66298        0.00617
C         -0.51194       -1.95421       -0.03649
C          0.86855       -2.10634       -0.04008
C          1.60820       -0.93552       -0.00925
C          1.12106        0.41015        0.02813
C          2.06775        1.39822        0.05337
N          2.06543        2.74092        0.06279
C          3.21796        0.72897        0.04854
C          3.00500       -0.61888        0.01699
N          3.82308       -1.35946        0.03448
H         -3.23230        2.80420        0.29739
H         -3.90049        1.32434        0.11442
H         -0.41219        2.71567        0.17064
H         -1.15952       -2.82744       -0.06517
H          1.33966       -3.08567       -0.06605
H          1.25764        3.25156       -0.28625
H          2.90126        3.25247       -0.21292
H          4.20162        1.19594        0.05714
H          3.56715       -2.34277        0.09654
H          4.83684       -1.31071        0.11315
