21
Coordinates from ORCA-job ./opt_b97-3c_parallel
N          3.04109        2.70833       -0.00146
C          2.61506        1.64961       -0.00135
C          2.04419        0.34318       -0.00086
C          0.79629       -0.18896       -0.00012
C          0.82336       -1.59529        0.00040
N         -0.28311       -2.43553        0.00155
C         -1.38745       -1.65172        0.00196
C         -1.68430       -0.30500        0.00156
C         -0.50527        0.40110        0.00051
C         -0.93036        1.68491        0.00079
C         -2.24578        1.72253        0.00183
C         -2.81028        0.48161        0.00234
N         -3.84894        0.11439        0.00382
N          2.09775       -2.00766        0.00020
C          2.86740       -0.83827       -0.00080
H         -2.24617       -2.34049        0.00309
H         -0.28532        2.56165        0.00039
H         -2.81960        2.64802        0.00238
H         -4.34111       -0.77710        0.00433
H         -4.56793        0.83739        0.00426
H          3.96307       -0.94855       -0.00115
