24
Coordinates from ORCA-job ./opt_b97-3c_parallel
N          4.21756       -0.44643        0.04966
C          3.07774       -0.35765        0.04798
C          1.63862       -0.23333        0.03364
C          0.80299       -1.35779       -0.06042
N          1.29864       -2.63375       -0.11147
C         -0.64163       -1.24905       -0.10478
C         -1.23048        0.04039       -0.06393
C         -0.30986        1.14474        0.00934
C          1.09597        1.10760        0.11613
C          1.72520        2.29660        0.29208
C          0.38073        2.54918        0.11808
N         -0.72769        2.41652        0.02520
C         -2.57992       -0.09929        0.03568
N         -3.55561        0.81680        0.12922
C         -2.78295       -1.41957        0.03674
C         -1.66200       -2.13826       -0.04685
H          2.28182       -2.77749        0.09341
H          0.66265       -3.40608        0.04994
H          2.45951        2.65454       -0.42527
H          0.29315        3.64747        0.08469
H         -4.49447        0.60822       -0.20357
H         -3.35319        1.79446       -0.07167
H         -3.76925       -1.87203        0.10486
H         -1.58519       -3.22238       -0.06274
