28
Coordinates from ORCA-job ./opt_b97-3c_parallel
N         -4.45429       -1.94389       -0.08302
C         -3.58558       -1.20443       -0.00678
C         -2.52700       -0.24830        0.07938
C         -2.69786        1.20307        0.00629
N         -3.49813        1.96138       -0.03766
C         -1.35701        1.85843       -0.03182
C         -0.41042        0.75137        0.01405
C         -1.09750       -0.43796        0.07615
N         -0.49084       -1.65511        0.12179
C          0.86913       -1.67407        0.09597
N          1.46434       -2.89982        0.14805
C          1.61445       -0.49003        0.02545
C          0.97625        0.72117       -0.00527
C          1.98120        1.72938       -0.07761
N          1.91980        2.82357        0.05083
C          3.20003        1.09727       -0.10226
C          3.07445       -0.23508       -0.04461
N          4.11131       -1.08722       -0.07074
H         -3.86696        2.88620       -0.25096
H         -4.27257        1.30647       -0.13682
H         -1.00725        2.88663       -0.08805
H          0.88575       -3.69904        0.38104
H          2.44768       -2.94092        0.39037
H          1.04507        3.22880        0.37716
H          2.63228        3.54554        0.14038
H          4.15680        1.61279       -0.17104
H          5.00922       -0.78263       -0.44116
H          3.96503       -2.04993       -0.36839
