24
Coordinates from ORCA-job ./opt_b97-3c_parallel
N          1.17729        0.17972       -0.56883
C          0.27910        0.06524        0.12778
C         -1.14851       -0.00794        0.00177
C         -1.91505       -0.03439       -1.24007
N         -1.51180       -0.33034       -2.22861
C         -3.36089        0.00215       -1.19098
C         -4.03818       -0.04265        0.02798
C         -3.35902       -0.08764        1.28152
C         -1.94818       -0.05585        1.21376
N         -1.50798       -0.04049        2.45869
C         -2.73529       -0.07231        3.11213
N         -3.87646       -0.10141        2.46375
C         -5.43733       -0.00428       -0.23304
N         -6.36587       -0.01432        0.36892
N         -5.56104        0.07062       -1.58701
C         -4.29292        0.08018       -2.19309
N         -4.38743        0.14354       -3.29384
H         -1.13048       -1.22513       -2.54186
H         -0.69818        0.27954       -2.11405
H         -2.40867       -0.05503        4.16447
H         -7.38533       -0.03035        0.30649
H         -6.15468       -0.06488        1.36839
H         -4.89103        0.21734       -4.17959
H         -3.39669        0.10562       -3.54364
