23
Coordinates from ORCA-job ./opt_b97-3c_parallel
N         -1.77792       -3.63709        0.00290
C         -1.13865       -2.68888        0.00443
C         -0.34311       -1.48589        0.00131
C          1.05845       -1.62176       -0.00050
C          1.92415       -0.46515       -0.00553
C          1.27555        0.79406       -0.00402
C         -0.09371        0.93728       -0.00090
C         -0.99908       -0.17802        0.00036
C         -2.35144        0.06593        0.00570
C         -2.32343        1.55750        0.01049
N         -3.23692        2.17166        0.01651
C         -0.96119        2.11624        0.00595
C          2.44209        1.71063       -0.00225
C          3.53658        0.95214       -0.00158
C          3.27278       -0.34802       -0.00262
H          1.51927       -2.60766        0.00041
H         -3.08510       -0.73622        0.00560
H         -4.17589        1.77849        0.01183
H         -3.33910        3.18468        0.00876
H         -0.58347        3.13591        0.00754
H          2.50497        2.79582       -0.00108
H          4.54481        1.35933        0.00057
H          3.99845       -1.15797       -0.00131
