27
Coordinates from ORCA-job ./opt_b97-3c_parallel
N         -2.34716        3.79574        0.11206
C         -1.64656        2.89315        0.08194
C         -0.77476        1.74888        0.03659
C          0.60685        1.90271        0.03121
C          1.35273        0.73207       -0.00805
C          0.86784       -0.62106       -0.03316
C         -0.52010       -0.78896       -0.05556
C         -1.27493        0.44678       -0.00562
C         -2.65175       -0.06457       -0.00624
C         -2.53593       -1.53110       -0.06867
N         -3.48434       -2.09012       -0.09095
C         -1.13027       -2.01978       -0.10924
C          1.84313       -1.58458       -0.04495
N          1.86084       -2.92716       -0.03483
C          2.98480       -0.90165       -0.04588
C          2.75384        0.44143       -0.02996
N          3.54724        1.20722       -0.07312
H          1.07885        2.88207        0.05638
H         -3.49922        0.61624        0.03016
H         -3.55238       -3.08857       -0.27771
H         -4.41830       -1.70191       -0.21034
H         -0.60807       -2.96598       -0.18282
H          1.05853       -3.44489        0.31687
H          2.70221       -3.42275        0.25274
H          3.97434       -1.35563       -0.04555
H          3.29604        2.19243       -0.12367
H          4.56160        1.15605       -0.14066
