23
Coordinates from ORCA-job ./opt_b97-3c_parallel
N          1.32242       -0.05606       -0.38196
C          0.22847       -0.33073       -0.19804
C         -1.18727       -0.10045       -0.13681
C         -1.90738        0.98013       -0.79227
N         -1.39422        1.86773       -1.20921
C         -3.34611        1.00881       -0.67385
C         -4.04786        0.06493        0.09578
C         -3.42615       -0.96308        0.76270
C         -2.01172       -1.01933        0.62694
N         -1.56490       -2.07906        1.28627
C         -2.76634       -2.57115        1.77089
N         -3.87360       -1.93752        1.48568
C         -5.37211        0.31625       -0.01072
C         -5.50196        1.36135       -0.82960
C         -4.28079        1.81994       -1.27553
N         -4.31879        2.67023       -1.97874
H         -0.39001        1.83034       -1.37914
H         -1.63763        2.84724       -1.07281
H         -2.65134       -3.49221        2.36210
H         -6.17610       -0.22752        0.47915
H         -6.46503        1.79261       -1.10196
H         -3.37741        2.62970       -2.36695
H         -4.91469        3.09307       -2.68753
