27
Coordinates from ORCA-job ./opt_b97-3c_parallel
N         -3.84233       -1.40799        0.05510
C         -3.18519       -0.22120       -0.10121
C         -3.93037        1.00011       -0.26853
C         -2.66386        1.66334       -0.19365
C         -1.55164        0.84682       -0.09282
C         -1.78712       -0.56567       -0.05669
C         -0.61850       -1.39579       -0.00636
C          0.66785       -0.85876        0.02352
C          1.75227       -1.80356        0.08024
N          2.84617       -1.90736       -0.00904
C          3.48480       -1.01046       -0.06226
C          3.37062        0.42074        0.01616
C          2.16454        1.12970        0.03760
N          2.30496        2.49186        0.08387
H          1.49658        3.05407        0.32342
H          3.22242        2.87604        0.28018
C          0.87566        0.53829        0.00912
C         -0.25942        1.36945       -0.04576
H         -0.15698        2.45062       -0.07485
H          4.32861        0.93556        0.03687
H          4.36164       -1.60077       -0.30344
H          1.70080       -2.88587        0.13557
H         -0.77611       -2.47169        0.01267
H         -2.55952        2.74509       -0.23351
H         -4.82322        1.26747        0.28692
H         -4.83754       -1.44492       -0.13661
H         -3.31153       -2.27013        0.00123
