22
Coordinates from ORCA-job ./opt_b97-3c_parallel
N         -3.91443       -1.53760        0.02668
C         -3.13284       -0.76110       -0.02934
N         -3.84175        0.42648       -0.04927
C         -3.02447        1.54458       -0.04558
C         -1.69589        1.85031        0.01620
C         -0.53368        0.91240        0.01771
N          0.69571        1.47833        0.06784
C          1.77209        0.65348        0.05334
N          3.05203        1.03648        0.09524
C          3.59026       -0.24070        0.03960
N          4.69120       -0.34777        0.05095
H          5.25188       -1.11038       -0.33193
H          5.36206        0.32273        0.42915
N          2.79194       -1.37338       -0.02942
C          1.62169       -0.72673       -0.01445
N          0.39376       -1.30335       -0.05416
C         -0.68421       -0.48264       -0.03436
N         -1.86525       -1.04778       -0.05053
H         -1.38989        2.89382        0.08044
H         -3.66166        2.44167       -0.09604
H         -3.82641       -2.53103        0.24198
H         -4.91378       -1.33446        0.07562
