20
Coordinates from ORCA-job ./opt_b97-3c_parallel
N          3.38045        1.47101        0.02485
C          2.84791        0.51116        0.00417
N          3.50537       -0.68311       -0.00429
C          2.56291       -1.67123       -0.01977
N          1.22488       -1.99113       -0.02386
C          0.27106       -0.97503       -0.01789
N         -1.02476       -1.48330        0.01168
C         -2.09876       -0.59758        0.06236
N         -3.46174       -0.76680        0.13386
C         -4.05977        0.48157        0.17265
N         -3.06242        1.44070        0.11947
C         -1.84521        0.80760        0.05105
C         -0.59455        1.34289       -0.03043
C          0.45744        0.47329       -0.01807
N          1.65335        1.18707       -0.00056
H         -0.47284        2.36266       -0.39493
H         -5.12994        0.73775        0.23401
H          3.47262       -2.29259       -0.02284
H          3.40004        2.48873        0.08207
H          4.35391        1.16902        0.05742
