27
Coordinates from ORCA-job ./opt_b97-3c_parallel
N         -3.64346       -1.53257        0.28233
C         -3.15133       -0.30168       -0.04876
C         -1.72869       -0.52620       -0.09980
C         -1.64267        0.90354       -0.10426
C         -2.83015        1.60943       -0.17586
C         -4.02602        0.82584       -0.24528
H         -4.94023        1.01027        0.30927
H         -2.83047        2.69692       -0.19115
C         -0.40687        1.53993       -0.04410
C          0.78063        0.80428       -0.01522
C          2.00486        1.56119        0.03415
N          3.09826        1.46961        0.14168
C          3.58630        0.48205        0.18181
C          3.24532       -0.90468        0.01841
C          1.94145       -1.40202       -0.07749
N          1.84991       -2.76336       -0.19769
H          2.69230       -3.28582       -0.41046
H          0.96385       -3.16229       -0.48666
C          0.76903       -0.60706       -0.06476
C         -0.48249       -1.24199       -0.11498
H         -0.61256       -2.31974       -0.14517
H          4.10493       -1.57121       -0.00258
H          4.52182        0.90506        0.53120
H          2.13789        2.63488       -0.04079
H         -0.36526        2.62706       -0.03200
H         -2.99650       -2.24096        0.61090
H         -4.61681       -1.61154        0.55469
