31
Coordinates from ORCA-job ./opt_b97-3c_parallel
N         -3.44231       -3.77307        0.08352
C         -3.04139       -2.71671        0.25490
C         -2.63306       -1.35893        0.06887
C         -1.36284       -0.69277        0.03652
C         -1.36323        0.68849       -0.01785
C         -2.63388        1.35433       -0.04129
C         -3.04121        2.71968       -0.16200
N         -3.43984        3.78643       -0.06638
C         -3.12639       -0.00323       -0.00506
N         -4.49322       -0.00627       -0.09066
H         -4.99554       -0.87219        0.07464
H         -4.99516        0.86971        0.01051
C         -0.15680        1.38597       -0.04798
C          1.06514        0.70470       -0.02505
C          2.21916        1.49747       -0.05204
C          3.56569        0.99026       -0.01809
N          4.05203       -0.00138       -0.00690
C          3.56601       -0.99302        0.00469
N          4.65820       -1.81197       -0.04940
H          4.53727       -2.80781       -0.19232
H          5.57631       -1.41314       -0.21051
C          2.21986       -1.50088        0.04429
C          1.06554       -0.70830        0.02547
C         -0.15621       -1.38986        0.05684
H         -0.16950       -2.47736        0.09619
H          2.14946       -2.58590        0.08607
N          4.65754        1.80987        0.03539
H          5.57575        1.41153        0.19598
H          4.53600        2.80566        0.17896
H          2.14824        2.58235       -0.09320
H         -0.17044        2.47337       -0.08822
