32
Coordinates from ORCA-job ./opt_b97-3c_parallel
N          1.58773        2.85709       -0.62911
C          1.74842        1.55110       -0.23937
C          3.09904        1.21944       -0.20644
C          3.69467        0.01707        0.10191
C          3.08132       -1.19695        0.31850
C          1.73716       -1.54090        0.21202
N          1.56706       -2.87211        0.49714
H          0.62708       -3.19214        0.70632
H          2.33717       -3.37421        0.92479
C          0.60927       -0.70215       -0.01142
C         -0.65753       -1.31708       -0.19619
N         -0.91882       -2.59383       -0.62557
H         -1.83960       -2.78994       -1.00129
H         -0.14040       -3.13077       -0.99436
C         -1.95245       -0.68794       -0.17626
C         -1.94679        0.71515        0.14918
C         -3.32938        1.09636        0.29979
C         -4.13083       -0.00246        0.09048
C         -3.33713       -1.08896       -0.19767
H         -3.79333       -2.05401       -0.40291
H         -5.21660       -0.01114        0.14583
H         -3.77750        2.05291        0.55635
C         -0.65208        1.34516        0.10842
N         -0.90781        2.63955        0.48799
H         -0.12273        3.19011        0.82037
H         -1.82161        2.85226        0.87049
C          0.61215        0.71928       -0.03459
H          3.77577       -2.00160        0.55926
H          4.78045        0.02232        0.16219
H          3.80615        2.02459       -0.40219
H          0.66185        3.14142       -0.93276
H          2.37874        3.32974       -1.05111
