31
Coordinates from ORCA-job ./opt_b97-3c_parallel
N          1.78729        3.40925       -0.59417
C          1.66721        2.29550       -0.36302
C          1.53464        0.87517       -0.09796
C          2.83711        0.24276       -0.22508
N          3.30842       -0.74762       -0.09633
C          2.75077       -1.69375       -0.00247
N          3.62505       -2.51233        0.65436
H          3.30628       -3.40018        1.02405
H          4.49771       -2.13409        1.00568
C          1.40146       -2.08908       -0.29617
C          0.27879       -1.25476       -0.22190
C         -0.93658       -1.92988       -0.35720
C         -2.13801       -1.25376       -0.24182
C         -2.14643        0.08945        0.05705
C         -3.45118        0.66491        0.24434
C         -3.98962       -0.63498       -0.06570
N         -5.35293       -0.56477       -0.03134
H         -5.89490       -1.34772       -0.38002
H         -5.79611        0.34673        0.00905
C         -3.40219       -1.91683       -0.36187
H         -3.70385       -2.56245       -1.18079
H         -3.74174        1.28778        1.08545
C         -0.94732        0.80763        0.17563
C         -1.08130        2.17526        0.63512
N         -1.20952        3.24474        1.01915
C          0.30559        0.15815       -0.03317
H         -0.95368       -3.00273       -0.54053
H          1.30360       -3.16027       -0.46292
N          4.05264        0.87128       -0.35891
H          4.91757        0.34367       -0.31194
H          4.10131        1.88303       -0.41501
