23
Coordinates from ORCA-job ./opt_b97-3c_parallel
N          3.82100        1.46337        0.11178
C          2.81289        0.57455        0.04356
C          3.38421       -0.66595        0.03065
C          2.58941       -1.85420        0.00837
C          1.22901       -1.82050       -0.00448
C          0.12069       -0.82038       -0.00003
N         -1.12478       -1.35781       -0.02523
C         -2.17420       -0.50335       -0.02321
N         -3.46899       -0.84656       -0.04489
C         -3.60547        0.26073       -0.02714
C         -3.26108        1.59080       -0.00004
C         -1.97989        0.86296        0.00265
N         -0.74652        1.41576        0.02773
C          0.31417        0.57333        0.02683
C          1.60667        1.21971        0.05929
H          1.60930        2.30766        0.09515
H         -4.02131        2.36816        0.00421
H         -4.70580        0.22412       -0.03152
H          0.71497       -2.78005       -0.02618
H          3.11777       -2.80204        0.00082
H          4.46187       -0.81593        0.03839
H          3.66061        2.44001       -0.12795
H          4.75300        1.20951       -0.20912
