30
Coordinates from ORCA-job ./opt_b97-3c_parallel
N          4.61138        0.33782       -0.04980
C          3.52740        0.14123       -0.08651
N          3.30169       -1.20669       -0.18852
C          1.94648       -1.41979       -0.16915
C          0.78229       -0.72495        0.00320
C         -0.31407       -1.55668        0.11962
N         -0.38375       -2.64944        0.30392
H         -1.26323       -3.07057        0.00781
H          0.09351       -3.35429        0.86416
C         -1.64640       -1.01457       -0.01622
C         -1.76323        0.38460       -0.17019
C         -3.17274        0.63606       -0.19090
N         -3.84232        1.51268       -0.21621
H         -3.84640        2.09981       -1.04806
H         -4.73198        1.66973        0.25743
C         -3.79123       -0.58477       -0.10036
C         -2.89447       -1.56451        0.01114
H         -3.12922       -2.62272        0.10675
H         -4.86932       -0.74520       -0.10448
C         -0.66271        1.31717       -0.04414
N         -0.91487        2.30286        0.39532
H         -1.92895        2.32141        0.28459
H         -0.67166        3.18307        0.84647
C          0.63083        0.64680       -0.03803
C          1.68424        1.65161       -0.03782
N          3.05949        1.43286       -0.01444
H          1.73086        2.75159       -0.03644
H          2.28087       -2.46232       -0.28641
H          5.28229       -0.42222        0.05261
H          5.12275        1.19767        0.14517
