25
Coordinates from ORCA-job ./opt_b97-3c_parallel
N         -3.73045       -1.90097        0.00996
C         -2.85944       -1.20720        0.00970
N         -3.39491       -0.02947        0.01143
C         -2.90509        1.16794        0.00842
N         -3.79536        1.83651        0.00910
H         -3.74621        2.85848        0.08139
H         -4.80587        1.67329       -0.05773
C         -1.60321        1.64019        0.00701
C         -0.43741        0.75964        0.01007
N          0.78676        1.45939        0.01508
C          2.00024        0.75066        0.02407
N          3.34493        1.06860        0.03593
C          4.11467       -0.08965        0.04465
N          5.22352       -0.07776        0.05733
H          5.86456        0.72155        0.07341
H          5.84922       -0.88926        0.06256
N          3.20823       -1.14705        0.03685
C          1.90955       -0.67283        0.02373
N          0.72844       -1.22659        0.01394
C         -0.44212       -0.64596        0.01090
C         -1.51450       -1.54342        0.00907
H         -1.28243       -2.60896        0.00829
H         -1.40896        2.71273        0.00559
H         -4.74466       -1.76193       -0.05545
H         -3.65650       -2.92106        0.07995
