29
Coordinates from ORCA-job ./opt_b97-3c_parallel
N         -5.21120       -0.57196       -0.97850
C         -4.31238       -0.49981       -0.27624
C         -2.87914       -0.33888       -0.05847
C         -2.27271       -1.59047        0.02992
C         -0.87480       -1.92261        0.24978
C          0.23533       -1.09838        0.20812
N          1.34741       -1.87568        0.26828
C          2.58997       -1.29843        0.14339
C          2.75953        0.08447       -0.11186
C          4.21071       -0.20547       -0.21016
C          4.83927       -1.40021       -0.03863
N          3.68959       -2.12449        0.18782
H          5.91860       -1.61026       -0.09787
H          4.78188        0.69557       -0.42619
C          1.57968        0.88885       -0.11842
C          2.00430        2.11279       -0.73409
N          2.37071        3.06332       -1.25062
C          0.25105        0.29812        0.09811
C         -0.80324        1.21479        0.21404
C         -0.57093        2.61309        0.52884
N         -0.23765        3.02632        1.54205
C         -2.24508        0.95950        0.14993
N         -3.02699        1.75762        0.19772
H         -2.84470        2.71690        0.48941
H         -4.04074        1.66682        0.14184
H         -0.63317       -2.99093        0.36587
N         -2.70910       -2.61714       -0.03316
H         -3.68277       -2.52392       -0.32312
H         -2.51672       -3.61797       -0.04812
