29
Coordinates from ORCA-job ./opt_b97-3c_parallel
N         -5.09421       -0.21741       -0.01806
C         -3.73439       -0.07657       -0.02193
C         -2.99184       -1.24701        0.01446
C         -1.61318       -1.42085        0.00955
C         -0.56520       -0.48352       -0.02016
C         -0.72834        0.92975       -0.03775
C         -1.92624        1.65208       -0.05922
C         -3.24480        1.21895       -0.05942
H         -3.98786        2.01379       -0.08660
H         -1.83635        2.73645       -0.08205
C          0.40872        1.75889       -0.03938
C          1.67326        1.19477       -0.01738
C          1.83961       -0.13586       -0.00781
C          3.23950       -0.41037        0.01648
N          3.19083        0.72072       -0.01400
C          2.94955        1.82861       -0.01678
H          3.18423        2.88136        0.07855
N          4.18688       -1.38628        0.11493
H          5.15056       -1.12461        0.28752
H          3.90059       -2.32415        0.37083
C          0.75527       -1.01049       -0.02411
N          1.03532       -2.35300       -0.06174
H          1.98687       -2.62476       -0.28350
H          0.29545       -2.98641       -0.34053
H          0.32013        2.84300       -0.05405
H         -1.35080       -2.47267        0.04472
H         -3.56309       -2.17299        0.04817
H         -5.67001        0.60324        0.13260
H         -5.49067       -1.12594        0.19571
