20
Coordinates from ORCA-job ./opt_b97-3c_parallel
C          3.57610        0.11793        0.00135
C          2.99538       -1.11597        0.00191
N          1.74459       -1.70767        0.00253
C          0.64681       -0.84771        0.00260
C         -0.64600       -1.47034        0.00313
C         -1.73462       -0.63910        0.00282
N         -3.00119       -1.12319        0.00259
C         -3.59469        0.08787        0.00159
N         -2.90766        1.20764        0.00121
C         -1.69196        0.76379        0.00204
C         -0.46054        1.38385        0.00161
C          0.76534        0.60545        0.00214
N          1.64508        1.28492        0.00162
C          2.75033        1.20570        0.00128
H          3.43887        2.06402        0.00550
H         -0.39981        2.47069        0.00113
H         -4.69233        0.01782        0.00134
H         -0.72440       -2.55266        0.00315
H          3.53237       -2.07608        0.00213
H          4.65808        0.22792       -0.00058
