26
Coordinates from ORCA-job ./opt_b97-3c_parallel
N         -2.02803       -2.27093       -1.52489
C         -2.20152       -1.88089       -0.46296
C         -1.65806       -0.57984       -0.16962
C         -2.86513        0.18104        0.05102
C         -2.90520        1.40150        0.64666
C         -2.29506        2.39869       -0.03914
C         -0.88873        2.42504       -0.29620
C         -0.01848        1.35768       -0.10418
N          1.26116        1.80183       -0.11976
C          2.28082        0.87985       -0.00743
C          2.04099       -0.51562        0.11228
C          3.51333       -0.68743        0.13828
C          4.45800        0.28971        0.06660
N          3.57603        1.34313       -0.03577
H          5.54779        0.13214        0.08356
H          3.80110       -1.73512        0.20466
C          0.68879       -0.97469        0.11233
C          0.66278       -2.37938        0.38384
N          0.68208       -3.49523        0.62616
C         -0.39178       -0.00294       -0.01680
H         -0.50842        3.40406       -0.58032
H         -2.83566        3.32121       -0.22890
H         -2.97339        1.48550        1.73493
N         -3.97934        0.18642        0.04806
H         -4.83994        0.72679       -0.02891
H         -4.19019       -0.74074       -0.31835
