24
Coordinates from ORCA-job ./opt_b97-3c_parallel
N         -4.08618       -1.38069        0.01849
C         -3.13039       -0.83420        0.07060
N         -3.78740        0.33535        0.04468
C         -3.11564        1.50171        0.03663
N         -1.73492        1.54945        0.01507
C         -0.59860        0.84502        0.01397
C          0.64336        1.57333       -0.03791
C          1.82308        0.74428       -0.02971
C          3.21191        1.24373       -0.08631
C          3.66014       -0.05186       -0.03606
N          4.69768       -0.44173       -0.03898
H          5.54366        0.08905       -0.24631
H          5.00919       -1.39395        0.15618
N          2.92265       -1.22563        0.03095
C          1.72262       -0.63641        0.03061
N          0.53771       -1.28110        0.07760
C         -0.60206       -0.55288        0.06507
C         -1.86491       -1.34231        0.10420
H         -1.71020       -2.41901        0.15868
H          3.89635        2.08777       -0.14264
H          0.68578        2.65706       -0.09389
H         -3.79539        2.36749        0.02678
H         -5.04327       -1.14920       -0.24366
H         -3.92457       -2.33730       -0.28947
