28
Coordinates from ORCA-job ./opt_b97-3c_parallel
N          5.47028        1.20319        0.12044
C          4.42985        0.73531        0.07731
C          3.09388        0.21141        0.02228
C          2.18487        1.25014       -0.05283
N          0.84857        1.36535       -0.10052
C         -0.02303        0.28496       -0.10924
N         -1.23121        0.77270       -0.14456
C         -2.23414       -0.05259       -0.11307
C         -2.20687       -1.42144       -0.14218
C         -3.47467       -1.90640       -0.04020
C         -4.32136       -0.88844        0.05019
C         -3.62127        0.27850        0.01589
C         -4.07581        1.62749        0.13990
N         -4.39182        2.71965        0.24671
H         -5.40277       -0.97308        0.13786
H         -3.75303       -2.95856       -0.04209
C         -0.89219       -2.01293       -0.15401
C          0.26271       -1.13666       -0.10125
C          1.52082       -1.82568       -0.02619
C          2.82255       -1.20574        0.04763
N          3.58417       -2.00573        0.11315
H          3.48813       -3.02169        0.11399
H          4.58044       -1.82656        0.24594
H          1.46111       -2.91584       -0.01607
H         -1.02094       -3.07679       -0.34639
N          2.08078        2.35809       -0.09212
H          1.69835        3.29805       -0.21436
H          3.09148        2.50253       -0.02922
