33
Coordinates from ORCA-job ./opt_b97-3c_parallel
N         -5.33252       -0.83954        1.30277
C         -4.27878       -0.68980        0.88500
C         -2.93597       -0.51036        0.34080
C         -2.14292       -1.66302        0.17774
C         -0.81903       -1.73100       -0.31470
C         -0.38127       -3.05705       -0.73832
N         -0.04890       -4.10196       -1.06267
C          0.15614       -0.70417       -0.22610
C          1.51847       -1.10479       -0.26979
C          2.53120       -0.19804       -0.02414
C          2.25151        1.09690        0.30071
C          3.44808        1.74788        0.58332
C          4.47400        0.82482        0.40991
C          3.90452       -0.38589        0.03386
C          4.62078       -1.60705       -0.22877
N          5.17947       -2.57939       -0.44793
H          5.53537        1.01623        0.54974
H          3.56931        2.78864        0.87549
C          0.94553        1.56509        0.30351
C          0.74105        2.89800        0.83668
N          0.58686        3.94225        1.27492
C         -0.11900        0.68527       -0.06374
C         -1.34986        1.25859       -0.45532
C         -1.28893        2.48588       -1.24030
N         -1.24390        3.43750       -1.87246
C         -2.63453        0.75350       -0.19098
N         -3.69872        1.60920       -0.40880
H         -4.64314        1.23930       -0.37068
H         -3.54307        2.46833       -0.92661
H          1.83661       -2.13034       -0.43151
N         -2.75261       -2.86696        0.48513
H         -3.64333       -2.86158        0.97199
H         -2.19118       -3.71170        0.52141
