24
Coordinates from ORCA-job ./opt_b97-3c_parallel
N          3.52364        1.62951       -0.00266
C          3.04874        0.63488        0.05123
N          1.90313        1.30791        0.05450
C          0.77826        0.56291        0.04746
N         -0.36335        1.29849        0.08100
C         -1.55316        0.67441        0.04448
N         -2.76437        1.22767        0.08025
C         -3.56836        0.14888        0.00489
N         -4.61935        0.49451        0.05682
H         -5.44786       -0.08122       -0.09530
H         -4.96695        1.40853        0.34922
C         -3.05992       -1.12568       -0.09815
C         -1.64816       -0.69064       -0.04147
N         -0.54267       -1.45712       -0.06484
C          0.67951       -0.86472       -0.01129
C          1.70002       -1.90904       -0.01610
C          3.12138       -1.69292        0.03186
C          3.76918       -0.50418        0.06014
H          4.84583       -0.48347        0.22491
H          3.71762       -2.60016        0.04636
H          1.41307       -2.95735       -0.03108
H         -3.70791       -1.99580       -0.17902
H          3.35978        2.61388       -0.20687
H          4.51889        1.47000       -0.14730
