27
Coordinates from ORCA-job ./opt_b97-3c_parallel
N         -3.65380       -2.78496        0.14849
C         -3.11746       -1.82588       -0.16511
C         -2.44538       -0.57808        0.02306
C         -1.07993       -0.14032        0.03887
C         -0.84486        1.21510        0.08968
C         -1.98481        2.08060        0.13482
C         -2.71772        0.84037        0.04826
N         -4.04425        1.16917       -0.00904
H         -4.32582        2.12015        0.20188
H         -4.73275        0.43093        0.09443
H         -2.11969        2.95193       -0.49885
C          0.45940        1.69542        0.09076
C          1.55929        0.82296        0.04593
C          2.80028        1.46798        0.04445
C          4.08311        0.93562        0.01241
C          4.47097       -0.39418       -0.02190
C          3.66061       -1.51814       -0.03890
C          2.27395       -1.59081       -0.02966
C          1.32015       -0.56827        0.00652
C         -0.00739       -1.02532        0.00203
H         -0.21848       -2.09234       -0.03213
H          1.89243       -2.60965       -0.05280
H          4.18175       -2.47248       -0.06584
H          5.54260       -0.57867       -0.03792
H          4.89400        1.66084        0.01745
H          2.78190        2.55564        0.07173
H          0.61265        2.77201        0.12666
