28
Coordinates from ORCA-job ./opt_b97-3c_parallel
N         -4.31914       -2.55495        0.80842
C         -3.65243       -1.62691        0.80614
C         -3.01513       -0.50137        0.19765
C         -1.63024       -0.13737        0.12934
C         -1.33242        1.18826       -0.09668
N         -0.06891        1.66071       -0.17739
C          0.97125        0.79451       -0.05181
N          2.24319        1.25758       -0.09585
C          3.25477        0.80481       -0.00905
N          3.61518       -0.24916       -0.02923
C          3.15164       -1.26062       -0.01438
N          3.99761       -2.20130       -0.52869
H          4.89213       -1.91483       -0.91045
H          3.62593       -3.09862       -0.82045
C          1.75336       -1.54637        0.21937
C          0.72979       -0.58836        0.14471
C         -0.58682       -1.04813        0.25590
H         -0.79334       -2.10239        0.41929
H          1.52424       -2.59419        0.39828
N          4.14906        1.71899        0.46419
H          5.11677        1.45791        0.61613
H          3.88045        2.69042        0.57140
C         -2.44639        2.07240       -0.25503
C         -3.26347        0.88458       -0.14004
N         -4.58801        1.08447       -0.42551
H         -4.93546        2.02994       -0.54353
H         -5.25532        0.35418       -0.19598
H         -2.54961        2.82878       -1.02679
