19
Coordinates from ORCA-job ./opt_b97-3c_parallel
N         -4.57158        0.15520        0.06051
C         -3.49243       -0.05469        0.03886
N         -2.63659        1.03516        0.09093
C         -1.33834        0.59102        0.05643
C         -1.38700       -0.83778       -0.02219
N         -2.71524       -1.19970       -0.03067
N         -0.17413       -1.53286       -0.07011
C          1.02344       -0.81009       -0.03992
N          2.15798       -1.62079       -0.09358
C          3.41595       -1.05719       -0.07211
N          4.15166        0.09476       -0.01312
C          3.29296        1.15811        0.05262
N          1.98084        1.58067        0.08657
C          0.94091        0.65055        0.04193
N         -0.21376        1.24298        0.08348
H          4.12202        1.88620        0.08726
H          4.28455       -1.73724       -0.11705
H         -5.09853        0.91005       -0.38090
H         -5.27129       -0.44487        0.50029
