26
Coordinates from ORCA-job ./opt_b97-3c_parallel
N         -2.83342       -3.12961        0.26119
C         -2.61805       -2.01401        0.14422
C         -2.34865       -0.59904        0.03777
C         -3.48120        0.21264        0.01555
N         -4.54674       -0.10216        0.08604
H         -5.48943        0.27921        0.16601
H         -4.63503       -1.09512        0.30520
C         -3.58248        1.59031       -0.11066
C         -2.55357        2.48843       -0.20806
N         -1.21977        2.43726       -0.19027
C         -0.51690        1.25221       -0.08876
N          0.73050        1.63690       -0.09212
C          1.58845        0.67216       -0.03489
C          1.26523       -0.68556        0.01333
N          0.00582       -1.15119        0.02450
C         -0.97140       -0.13772       -0.01935
C          2.49716       -1.39461        0.05989
C          2.69719       -2.81183        0.07811
N          2.58112       -3.30842       -0.94523
C          3.62134       -0.59994        0.08035
C          3.01718        0.63831        0.02114
C          3.92596        1.74223        0.05256
N          3.77147        2.68164        0.68507
H          4.48772       -0.83603       -0.53554
H         -2.89047        3.53259       -0.30480
H         -4.56274        2.08067       -0.14253
