28
Coordinates from ORCA-job ./opt_b97-3c_parallel
N         -5.39921       -0.23199        0.83593
C         -4.28960       -0.13966        0.57749
C         -2.90340       -0.03042        0.20830
C         -2.11361       -1.23102        0.15773
N         -2.29275       -2.30090        0.38188
H         -3.30610       -2.19194        0.39786
H         -2.11203       -3.30266        0.41184
C         -0.92813       -1.32819       -0.49609
C          0.11928       -0.58977       -0.05426
N          1.03673       -1.23792        0.04457
C          2.23427       -0.60258        0.12369
N          3.45738       -1.12276        0.20407
C          4.22136       -0.01257        0.23428
N          5.27979       -0.33725        0.26852
H          5.63865       -1.29175        0.22737
H          6.10102        0.26829        0.24746
C          3.67970        1.25286        0.19516
C          2.28189        0.77823        0.10893
N          1.09679        1.43032        0.01751
C          0.12108        0.87130       -0.06098
C         -1.00504        1.65969       -0.25908
C         -2.40045        1.22615       -0.14475
N         -2.97663        2.16991       -0.24425
H         -3.97934        1.99498       -0.30542
H         -2.87128        3.16181       -0.03690
H         -0.81656        2.72838       -0.41122
H          4.30273        2.14443        0.22242
H         -0.92163       -1.67390       -1.53200
