24
Coordinates from ORCA-job ./opt_b97-3c_parallel
N         -1.71761       -3.23299       -0.00860
C         -1.61298       -2.09393       -0.01684
C         -1.50202       -0.63729       -0.01993
C         -2.73946        0.04714       -0.03681
N         -3.91021       -0.67505       -0.07369
H         -4.79259       -0.20348        0.09032
H         -3.87199       -1.68333        0.03789
C         -2.96881        1.41735       -0.02163
C         -2.05653        2.45235        0.00319
C         -0.67640        2.38517        0.00810
C          0.17641        1.28291        0.00039
N          1.48438        1.66680        0.00272
C          2.39142        0.68382        0.00201
C          2.11044       -0.63699        0.00474
N          3.24986       -1.36275        0.00922
C          4.12201       -0.64521        0.00796
C          3.79464        0.76220        0.00319
H          4.46544        1.61468       -0.00600
H          5.09088       -1.12950        0.00762
N          0.82688       -1.03036        0.00110
C         -0.18498       -0.10078       -0.00479
H         -0.19374        3.36207        0.01951
H         -2.48022        3.45404        0.01356
H         -4.00977        1.73787       -0.03196
