27
Coordinates from ORCA-job ./opt_b97-3c_parallel
N          4.92099        1.89997        0.74334
C          3.85282        1.56566        0.50948
C          3.08459        0.49040       -0.03536
C          1.66752        0.27708       -0.06360
C          1.21275       -1.01940       -0.04377
C          2.18661       -2.06638       -0.02190
C          3.11299       -0.95713       -0.04873
N          4.35929       -1.52175       -0.09845
H          4.45616       -2.52102        0.04593
H          5.16925       -0.93232        0.06681
H          2.21052       -2.91553       -0.69850
N         -0.10208       -1.30692       -0.04424
C         -1.00821       -0.28272       -0.06852
C         -2.39229       -0.62190       -0.02344
C         -2.70932       -2.04283        0.02369
N         -2.97521       -3.15495        0.06393
C         -3.51070        0.25697        0.01318
N         -4.77952       -0.25708        0.13235
H         -5.54291        0.37196        0.35536
H         -4.88655       -1.23798        0.36978
C         -3.49199        1.65280       -0.05545
C         -2.35872        2.50506       -0.22799
N         -1.35553        2.08464       -0.18390
C         -0.51863        1.04901       -0.11765
N          0.81183        1.31532       -0.10967
H         -2.32215        3.51048       -0.62991
H         -4.41000        2.23543       -0.00990
