27
Coordinates from ORCA-job ./opt_b97-3c_parallel
N         -5.08003       -1.94955        0.08515
C         -3.99410       -1.59370        0.04472
C         -3.16003       -0.43386        0.03160
C         -1.74009       -0.23507        0.04648
C         -1.27676        1.05885        0.11649
N          0.03931        1.34407        0.11541
C          0.92766        0.31129        0.05320
C          2.30193        0.63462        0.04031
C          2.75453        2.01158        0.07026
N          3.12354        3.09384        0.08494
C          3.35961       -0.35426       -0.01335
N          3.52155       -1.44515       -0.02017
C          2.68842       -2.16801       -0.02591
C          1.25287       -2.16407       -0.04581
C          0.43856       -1.02761       -0.00001
N         -0.89471       -1.28338       -0.00909
H          0.82016       -3.16161       -0.08383
H          3.35828       -3.02006        0.00185
N          4.70292       -0.08190       -0.08016
H          5.02955        0.87457        0.00583
H          5.38268       -0.83044       -0.00138
C         -2.24751        2.10643        0.18554
C         -3.18454        1.01375        0.05024
N         -4.42950        1.56899       -0.07814
H         -5.24274        0.96379       -0.02244
H         -4.55290        2.55754        0.11187
H         -2.24539        3.01100       -0.41502
