25
Coordinates from ORCA-job ./opt_b97-3c_parallel
N          4.41290        0.38681        0.00593
C          3.08980        0.04917       -0.00174
N          2.61801        1.04672       -0.00409
C          1.53188        1.24928       -0.00387
C          0.26962        0.55572       -0.00275
C         -0.89661        1.33402       -0.00279
C         -2.12291        0.68433       -0.00152
C         -2.20386       -0.68743       -0.00020
C         -3.53970       -1.05409        0.00091
C         -4.28487        0.12170        0.00015
C         -3.40792        1.20325       -0.00131
H         -3.68160        2.25539       -0.00224
H         -5.37034        0.18408        0.00031
H         -3.93245       -2.06795        0.00171
C         -1.06546       -1.48090       -0.00039
C          0.19368       -0.86026       -0.00157
C          1.30975       -1.71277       -0.00112
C          2.64974       -1.32009       -0.00146
H          3.42909       -2.07872       -0.00094
H          1.12660       -2.78480       -0.00025
H         -1.15938       -2.56456        0.00016
H         -0.84643        2.42045       -0.00382
H          1.71731        2.31744       -0.00330
H          4.69663        1.35975       -0.00999
H          5.12716       -0.33230       -0.00700
