32
Coordinates from ORCA-job ./opt_b97-3c_parallel
N         -5.60140       -0.28563       -1.10285
C         -4.54206       -0.09758       -0.71540
C         -3.18569        0.14618       -0.23859
C         -2.81325        1.49051       -0.08370
C         -1.58331        1.98748        0.32929
C         -0.33830        1.36178        0.36648
C          0.71549        2.27375        0.53584
C          2.01764        1.85163        0.37682
C          2.31118        0.56241        0.01123
C          3.69493        0.50521       -0.19858
C          4.50436       -0.60626       -0.63202
N          5.15799       -1.47285       -0.98839
C          4.21966        1.76499        0.06922
C          3.17696        2.60601        0.42672
H          3.25366        3.66390        0.66686
H          5.26660        2.04878       -0.00969
C          1.29050       -0.39070       -0.10127
C          1.62004       -1.66648       -0.70763
N          1.86214       -2.66863       -1.20027
C         -0.06160       -0.01798        0.19120
C         -1.03670       -1.02323        0.42278
C         -0.57766       -2.22203        1.11756
N         -0.22958       -3.15302        1.68151
C         -2.42757       -0.96970        0.16970
N         -3.12274       -2.16092        0.28280
H         -4.13714       -2.14180        0.26816
H         -2.66591       -2.96080        0.70923
H          0.53065        3.32874        0.72966
H         -1.56949        3.06612        0.48532
N         -3.74080        2.47599       -0.32771
H         -3.41665        3.43045       -0.43827
H         -4.60686        2.21794       -0.79034
