26
Coordinates from ORCA-job ./opt_b97-3c_parallel
N         -2.33268       -3.39827        0.04108
C         -2.18838       -2.26298        0.03978
C         -2.05425       -0.82250        0.03011
C         -3.30807       -0.07462       -0.00939
N         -4.33830       -0.49001       -0.01851
H         -4.32988       -1.50150        0.10029
H         -5.30273       -0.19000        0.10818
C         -3.51824        1.27451        0.03453
C         -2.40491        2.00514       -0.13258
N         -1.06412        2.20612       -0.19336
C         -0.28521        1.11662       -0.01199
C          1.05683        1.47307        0.02513
C          1.59989        2.39309        0.34948
N          2.00402        3.46354        0.39272
C          1.96547        0.43043       -0.02342
C          1.48504       -0.91243        0.07431
N          2.55078       -1.77573        0.02120
C          3.69713       -1.02329       -0.11381
N          4.66794       -1.53380       -0.17148
H          4.78055       -2.53912       -0.06065
H          5.54969       -1.09979        0.09240
N          3.34257        0.30954       -0.15291
N          0.21802       -1.14518        0.18854
C         -0.74685       -0.27793        0.07726
H         -2.58386        3.08120       -0.27950
H         -4.48810        1.75614       -0.12457
