25
Coordinates from ORCA-job ./opt_b97-3c_parallel
N         -2.05346       -2.21105        0.53666
C         -1.80330       -1.01403       -0.07787
N         -2.85528       -0.73862       -0.26818
C         -3.27671        0.28311       -0.28198
C         -2.79638        1.60049        0.03671
C         -1.44705        1.92160        0.19832
C         -0.36870        1.02511        0.11003
C          0.91660        1.58567        0.19176
C          2.01948        0.75254        0.06392
C          1.87773       -0.59880       -0.13922
C          3.13674       -1.16769       -0.24155
C          4.06176       -0.13759       -0.09555
C          3.37084        1.05604        0.09495
H          3.80995        2.04016        0.23878
H          5.14286       -0.24719       -0.12619
H          3.36043       -2.21895       -0.40520
C          0.62601       -1.19090       -0.20613
C         -0.50777       -0.37632       -0.06504
H          0.53328       -2.26373       -0.35657
H          1.05738        2.65402        0.33817
H         -1.22201        2.97032        0.37879
H         -3.55482        2.37585        0.11011
H         -4.26740       -0.01431       -0.60519
H         -2.97625       -2.62705        0.48439
H         -1.28359       -2.78078        0.86792
