26
Coordinates from ORCA-job ./opt_b97-3c_parallel
N          4.24423        1.76016        0.04061
C          3.27522        0.79631        0.03796
C          3.71263       -0.52869        0.02513
C          2.86703       -1.68291        0.01927
N          1.77364       -1.70924        0.00875
C          0.68352       -0.93126        0.01215
C         -0.56485       -1.56514       -0.00646
C         -1.70143       -0.77384        0.00041
C         -1.66720        0.58129        0.02598
N         -2.90432        1.12500        0.02940
C         -3.62066        0.25289        0.00904
N         -4.96832        0.45875        0.00463
H         -5.60170       -0.32294        0.12594
H         -5.33042        1.39614        0.13991
C         -3.07256       -1.08490       -0.01288
H         -3.59344       -2.03650       -0.03696
C         -0.43840        1.23005        0.04392
C          0.75339        0.48276        0.03532
C          1.94231        1.23515        0.04725
H          1.81612        2.31636        0.06289
H         -0.41514        2.31733        0.06321
H         -0.64471       -2.64969       -0.02575
H          3.15057       -2.72822        0.01058
H          4.77353       -0.76870        0.02053
H          3.97591        2.72011       -0.14629
H          5.20223        1.48809       -0.14976
