29
Coordinates from ORCA-job ./opt_b97-3c_parallel
N          4.70517        1.52373       -0.16679
C          3.79030        0.92260       -0.49520
C          2.70688        0.07460       -0.09897
C          2.78081       -1.36758       -0.02148
N          3.96726       -2.02585        0.16010
H          4.00639       -3.02569       -0.00347
H          4.82949       -1.49570        0.08347
C          1.82844       -2.44835       -0.10562
C          0.83902       -1.41484       -0.06867
C          1.27803       -0.10734       -0.05812
C          0.35384        0.94754       -0.00487
C          0.87380        2.29906        0.01321
N          1.27725        3.36851        0.01679
C         -1.03926        0.68011        0.03489
C         -1.94991        1.76475        0.09893
C         -3.34986        1.76150        0.16562
C         -4.20805        0.66437        0.16703
C         -3.78617       -0.69848        0.06974
N         -2.74720       -1.03315        0.03935
C         -1.45848       -0.66846        0.01539
C         -0.51820       -1.69751       -0.03341
H         -0.85008       -2.73416       -0.04279
N         -4.65014       -1.73409       -0.12751
H         -4.28725       -2.64950       -0.36740
H         -5.62945       -1.54542       -0.30886
H         -5.28169        0.82441        0.23447
H         -3.82708        2.73665        0.22624
H         -1.54849        2.77280        0.11055
H          1.80499       -3.34011        0.51508
