29
Coordinates from ORCA-job ./opt_b97-3c_parallel
N          2.98080        3.23829        0.23835
C          2.85881        2.10653        0.14178
C          2.65913        0.68166        0.02847
C          3.81333       -0.09653        0.05939
C          3.95675       -1.47193       -0.05030
C          2.95901       -2.40303       -0.17356
N          1.62374       -2.39521       -0.20956
C          0.88268       -1.22988       -0.16558
N         -0.35767       -1.63790       -0.21065
C         -1.27705       -0.72539       -0.14825
C         -1.08293        0.60189       -0.14824
C         -2.33583        1.23690        0.05647
C         -2.47847        2.65620        0.19117
N         -2.37606        3.33917       -0.71941
C         -3.38475        0.34735        0.13361
N         -4.69661        0.58712        0.30649
H         -5.10477        1.47504        0.01521
H         -5.38749       -0.14595        0.14847
C         -2.69248       -0.84889        0.04571
C         -3.30508       -2.13095        0.20957
N         -3.75457       -3.17088        0.35538
C          0.24135        1.16216       -0.12929
C          1.30994        0.16541       -0.09817
H          0.20573        2.08158       -0.71165
H          3.32846       -3.43833       -0.24089
H          4.95218       -1.93030       -0.03948
N          4.86119        0.26051        0.16876
H          4.92019        1.25662        0.38191
H          5.81395       -0.09399        0.25184
