29
Coordinates from ORCA-job ./opt_b97-3c_parallel
N         -1.66875       -3.64256        0.29196
C         -1.58447       -2.50774        0.18372
C         -1.46195       -1.07074        0.04190
C         -2.73681       -0.38637       -0.02445
N         -3.14298        0.63964        0.02395
C         -2.53139        1.55825        0.02235
N         -3.50347        2.49225        0.24722
H         -4.44963        2.19602        0.45929
H         -3.24759        3.45452        0.43777
C         -1.14161        1.90571       -0.09616
C         -0.06909        1.00714       -0.07575
N          1.15412        1.59472       -0.11765
C          2.25687        0.82412       -0.07660
C          2.20314       -0.54836       -0.00143
C          3.44759       -1.25537        0.03261
C          4.03002        0.06493       -0.03090
N          5.39446       -0.00536        0.01197
H          5.84415       -0.90561       -0.11363
H          5.93515        0.83194       -0.17570
C          3.55416        1.42719       -0.09743
H          3.89466        2.17374       -0.80766
H          3.69618       -2.02915        0.75220
C          0.96473       -1.17674        0.03893
C         -0.21458       -0.40730        0.00308
H          0.94535       -2.26172        0.09437
H         -0.95923        2.97664       -0.16410
N         -3.93667       -0.97211       -0.34113
H         -4.79409       -0.43789       -0.25379
H         -4.00871       -1.98353       -0.35868
