26
Coordinates from ORCA-job ./opt_b97-3c_parallel
N         -1.53776       -3.51461       -0.00367
C         -1.59829       -2.37397        0.00310
C         -1.73582       -0.93591        0.00250
C         -3.09802       -0.44236        0.00290
C         -3.56749        0.84268        0.00283
C         -2.95242        2.04861        0.00277
C         -1.55353        2.34041        0.00189
C         -0.49579        1.34886        0.00167
N          0.45446        1.93709        0.00122
C          1.69579        1.40205        0.00112
C          1.83758        0.04281        0.00154
C          3.24010       -0.40931        0.00150
C          3.83521       -1.33739        0.00176
N          4.11290       -2.44614       -0.00006
C          3.23001        0.97114        0.00108
N          2.87399        2.03469        0.00072
H          4.29650        1.24968       -0.00052
C          0.70429       -0.76762        0.00186
C         -0.60757       -0.11493        0.00198
H          0.88407       -1.83964        0.00185
H         -1.30270        3.40215        0.00129
H         -3.58302        2.93314        0.00187
H         -4.65443        0.99278        0.00207
N         -3.99812       -1.09804        0.00296
H         -3.77748       -2.09224       -0.00031
H         -5.01354       -1.02626        0.00022
