29
Coordinates from ORCA-job ./opt_b97-3c_parallel
N          4.61953        0.32269        0.11569
C          3.52327        0.20007        0.10647
N          3.34078       -1.14631        0.15770
C          2.02800       -1.57201        0.13233
C          0.82138       -0.76681        0.02332
C         -0.39815       -1.56364       -0.03613
N         -0.46022       -2.57851       -0.47428
H         -0.01552       -3.00131       -1.29031
H         -0.83182       -3.35781        0.07059
C         -1.73765       -1.02178        0.09253
C         -1.72671        0.39331        0.03953
C         -3.11590        0.67713        0.19854
N         -3.69907       -0.52807        0.30917
C         -2.95331       -1.62713        0.26321
H         -3.40952       -2.62744        0.32986
N         -4.01102        1.32028        0.28584
H         -4.90234        1.37659       -0.20921
H         -4.01418        2.09231        0.95250
C         -0.63751        1.21104       -0.11024
N         -0.96081        2.50281       -0.31277
H         -1.73821        2.75805       -0.92174
H         -0.23485        3.20571       -0.45161
C          0.63632        0.69116       -0.02661
C          1.71163        1.67069        0.00272
N          3.07975        1.48439        0.04656
H          1.95026        2.74562       -0.01679
H          2.35938       -2.62104        0.18538
H          5.30814       -0.42313        0.21379
H          5.15571        1.16571       -0.08794
