27
Coordinates from ORCA-job ./opt_b97-3c_parallel
N         -3.92749       -2.24865        1.64634
C         -3.42002       -1.50492        0.94222
C         -2.81900       -0.54584        0.06569
C         -1.42228       -0.20647       -0.03610
C         -1.17100        1.13869       -0.20644
C         -2.49100        1.77020       -0.27332
C         -3.52680        0.71152       -0.12482
N         -4.51296        1.19912       -0.22347
H         -5.15323        1.86111       -0.65802
H         -5.08465        0.47481        0.20863
H         -2.37405        2.83957       -0.43523
N          0.09686        1.59573       -0.28883
C          1.07698        0.66461       -0.21808
N          2.24081        1.25850       -0.29389
C          3.48159        1.01447       -0.01692
N          3.94439        1.81112        0.58694
H          4.76812        1.62694        1.15632
H          3.61258        2.74144        0.83317
C          3.95042       -0.24367       -0.25183
C          3.06893       -1.28179       -0.16416
N          3.32706       -2.35586       -0.18168
H          4.22342       -2.31286       -0.66129
H          2.87747       -3.21813       -0.48631
N          1.79565       -1.69640       -0.07591
C          0.83838       -0.73104       -0.08677
N         -0.44938       -1.14273        0.01304
H          5.01747       -0.42232       -0.37467
