29
Coordinates from ORCA-job ./opt_b97-3c_parallel
N          3.69369        2.97410       -0.01579
C          3.30828        1.93332        0.25698
C          2.84566        0.59808        0.04089
C          1.56316       -0.04668        0.04412
C          1.54569       -1.42139        0.10035
C          2.80478       -2.10044        0.15161
C          3.33344       -0.76210        0.04020
N          4.69150       -0.84639       -0.09997
H          5.24066        0.00417       -0.03097
H          5.15252       -1.73054        0.08438
H          3.09512       -2.94085       -0.47193
C          0.33172       -2.09273        0.09712
C         -0.87560       -1.38961        0.04098
N         -1.98723       -2.12792        0.03580
C         -3.07435       -2.17046        0.00590
C         -3.86882       -0.98524       -0.04104
C         -3.43004        0.34101       -0.06692
N         -4.46667        1.24280       -0.11033
H         -4.26489        2.22694        0.03451
H         -5.41014        0.91659        0.06621
C         -2.08521        0.80691       -0.05496
C         -1.94032        2.25420       -0.08650
N         -1.83646        3.39298       -0.10117
C         -0.89146        0.02289       -0.00852
C          0.36860        0.66758       -0.00926
H          0.46263        1.74833       -0.05277
H         -4.92880       -1.23240       -0.05779
H         -3.40112       -3.20110        0.07404
H          0.32339       -3.18045        0.13699
