29
Coordinates from ORCA-job ./opt_b97-3c_parallel
N         -4.73461       -0.10621        0.25572
C         -3.65457       -0.11637        0.03213
N         -3.30713       -1.43439       -0.12523
C         -1.97972       -1.64643       -0.45181
C         -0.82952       -0.83386       -0.10939
C          0.34075       -1.57659        0.12817
C          1.50188       -0.92991        0.52790
C          1.57408        0.48089        0.48914
C          2.87072        0.83292       -0.00518
N          3.56679        1.59226       -0.41104
H          4.52452        1.73122       -0.08545
H          3.36123        2.39301       -1.00959
N          3.69681       -0.27192       -0.10683
C          2.87080       -1.27725        0.24404
N          3.42363       -2.22864        0.18551
H          4.42339       -2.42719        0.14941
H          2.95893       -3.13383        0.25166
C          0.40322        1.26545        0.20426
N          0.48221        2.63248        0.27487
H         -0.37415        3.17738        0.25091
H          1.27391        3.05555        0.75020
C         -0.80711        0.58857       -0.07102
C         -1.95921        1.43102       -0.34420
N         -3.29168        1.20498       -0.04610
H         -2.32150        2.46888       -0.28501
H          0.35213       -2.65479       -0.02563
H         -2.26665       -2.70951       -0.43697
H         -5.34044       -0.92167        0.34972
H         -5.36158        0.69608        0.19136
