29
Coordinates from ORCA-job ./opt_b97-3c_parallel
N          4.86172       -0.01039       -0.04692
C          3.49492       -0.00900       -0.03644
C          2.87261        1.22124       -0.15269
C          1.51897        1.52696       -0.13702
C          0.37622        0.70841       -0.04355
C         -0.86915        1.39640       -0.02817
N         -0.98717        2.76376       -0.02072
H         -0.16771        3.31496        0.20687
H         -1.89331        3.16287        0.19616
C         -2.05201        0.66819        0.00012
C         -2.05375       -0.67168        0.01228
C         -3.40673       -1.12703        0.02527
N         -3.50365        0.00015        0.01723
C         -3.40415        1.12733        0.00738
H         -3.79290        2.09110        0.31173
H         -3.80391       -2.08783       -0.27849
C         -0.87264       -1.40302        0.02310
N         -0.99410       -2.76989        0.01782
H         -0.18053       -3.32335       -0.22458
H         -1.90507       -3.16612       -0.18499
C          0.37478       -0.71832        0.01863
C          1.51704       -1.54028        0.09314
C          2.87122       -1.23783        0.08818
H          3.53009       -2.10004        0.17747
H          1.36736       -2.60993        0.18746
H          1.37085        2.59719       -0.23002
H          3.53191        2.08135       -0.25434
H          5.35184        0.87435        0.02494
H          5.35158       -0.85248        0.23439
