29
Coordinates from ORCA-job ./opt_b97-3c_parallel
N         -4.19001       -2.71361        0.32203
C         -3.52166       -1.79892        0.47381
C         -2.89502       -0.60423        0.00047
C         -1.53689       -0.14283       -0.01162
C         -1.32506        1.22304       -0.01467
C         -2.48029        2.06835       -0.02026
C         -3.18515        0.80952       -0.06507
N         -4.51021        1.12050       -0.20293
H         -4.80752        2.07942       -0.06022
H         -5.19739        0.38342       -0.08310
H         -2.64710        2.90134       -0.69700
C         -0.02947        1.73317       -0.01987
C          1.07101        0.87211       -0.02570
N          2.31402        1.40420       -0.02009
C          3.36890        1.07531       -0.01507
N          4.16693        2.16128        0.19519
H          3.74434        3.05837        0.40507
H          5.14616        2.03014        0.42149
C          3.87166       -0.27508       -0.06928
C          2.98519       -1.41218       -0.07798
N          3.41903       -2.69962       -0.20017
H          4.40965       -2.90986       -0.15921
H          2.75846       -3.46459       -0.12345
N          1.88100       -1.40490       -0.05714
C          0.85617       -0.52331       -0.03465
C         -0.45097       -1.01605       -0.02471
H         -0.62167       -2.09064       -0.02919
H          4.92819       -0.42361       -0.27851
H          0.12633        2.81023       -0.01936
