27
Coordinates from ORCA-job ./opt_b97-3c_parallel
N         -1.87514       -3.81863        0.01861
C         -1.84459       -2.67674        0.01026
C         -1.74622       -1.23252        0.00104
C         -3.03988       -0.71764       -0.00598
C         -3.45311        0.66736       -0.01788
C         -2.64031        1.76613       -0.01254
C         -1.20918        1.87360        0.00139
C         -0.77269        3.24963        0.01100
N         -0.38075        4.32257        0.02040
C         -0.24050        0.85782        0.00256
N          1.04130        1.34570        0.00700
C          2.14930        0.51243        0.00623
C          1.89207       -0.85816        0.00053
N          3.08321       -1.52312       -0.00072
C          4.00088       -0.47565        0.00442
N          5.08749       -0.68285        0.00472
H          5.86376       -0.01829        0.01383
H          5.52516       -1.60610       -0.00422
N          3.43263        0.70773        0.00872
C          0.63712       -1.39330       -0.00252
C         -0.46167       -0.53123       -0.00063
H          0.57148       -2.47586       -0.00690
H         -3.16059        2.72235       -0.01776
H         -4.51651        0.94147       -0.02837
N         -4.05442       -1.17917       -0.00638
H         -4.08525       -2.19838       -0.02832
H         -5.02665       -0.87498        0.04250
