24
Coordinates from ORCA-job ./opt_b97-3c_parallel
N         -3.93630       -1.56220        0.09118
C         -3.17459       -0.77207       -0.01026
N         -3.89674        0.40673       -0.08269
C         -3.09104        1.53226       -0.11537
C         -1.76815        1.85426       -0.02639
C         -0.58950        0.93542        0.00602
C          0.71555        1.54459        0.10064
C          1.79478        0.68612        0.03855
N          3.09553        0.95867        0.08678
C          3.67951       -0.29676       -0.02981
N          4.78223       -0.34941       -0.02041
H          5.45351        0.40609        0.12415
H          5.34003       -1.18980       -0.17467
N          2.84529       -1.29675       -0.14536
C          1.68489       -0.72659       -0.09282
C          0.43513       -1.31955       -0.14181
C         -0.72205       -0.45724       -0.05583
N         -1.90109       -1.02916       -0.04510
H          0.34080       -2.39705       -0.25524
H          0.85837        2.61463        0.22574
H         -1.48091        2.90314        0.02929
H         -3.76879        2.39325       -0.22989
H         -4.93289       -1.36495        0.19186
H         -3.82928       -2.55215        0.31227
