28
Coordinates from ORCA-job ./opt_b97-3c_parallel
N         -1.28210       -3.65862       -0.23485
C         -1.21521       -2.51998       -0.15420
C         -1.12577       -1.07834       -0.03275
C         -2.41215       -0.42170        0.08156
N         -2.84550        0.59384        0.10529
C         -2.26244        1.53031        0.08580
N         -3.23891        2.42523       -0.24926
H         -4.15949        2.08653       -0.50588
H         -2.98535        3.36729       -0.52413
C         -0.88207        1.90785        0.21421
C          0.20694        1.03074        0.13865
C          1.46470        1.65257        0.20069
C          2.60514        0.87491        0.09514
C          2.52384       -0.48356       -0.06179
C          3.80766       -0.99671       -0.15137
C          4.68494        0.07922       -0.04603
C          3.93961        1.24464        0.10823
H          4.33167        2.25323        0.21445
H          5.76992        0.01944       -0.08122
H          4.07983       -2.04116       -0.28273
C          1.30157       -1.13622       -0.10954
C          0.10811       -0.38722       -0.00391
H          1.30384       -2.21644       -0.22823
H          1.55540        2.73054        0.31507
H         -0.73173        2.97831        0.33959
N         -3.62526       -1.05179        0.20281
H         -3.67307       -2.06267        0.26724
H         -4.47471       -0.51363        0.33327
