31
Coordinates from ORCA-job ./opt_b97-3c_parallel
N         -4.56355       -2.02658        0.09235
C         -3.73422       -1.35379        0.49976
C         -2.85050       -0.30191        0.09853
C         -3.17483        1.10745        0.08197
N         -4.46472        1.56517        0.11374
H         -4.64909        2.54927       -0.04610
H         -5.22035        0.90299       -0.03155
C         -2.42480        2.33997        0.10707
C         -1.26950        1.49628        0.07114
C         -1.47836        0.13171        0.05849
C         -0.38327       -0.74008        0.01031
C         -0.60879       -2.16992       -0.01763
N         -0.79752       -3.29775       -0.03301
C          0.92853       -0.22548       -0.01078
N          1.96747       -1.07480       -0.05127
C          3.05456       -1.16147       -0.07873
N          3.39427       -2.47788       -0.18303
H          2.67624       -3.19027       -0.10835
H          4.36420       -2.76172       -0.10575
C          4.00685       -0.09452       -0.03284
C          3.68062        1.26244       -0.00009
N          4.72817        2.14069        0.02979
H          4.54304        3.11471        0.24219
H          5.65858        1.78189        0.21436
C          2.38824        1.81261        0.00956
C          1.13432        1.16955        0.01146
C          0.01953        2.01521        0.04602
H          0.14990        3.09567        0.05912
H          2.35868        2.90078        0.02875
H          5.04767       -0.41207       -0.03240
H         -2.59866        3.19753       -0.53699
