31
Coordinates from ORCA-job ./opt_b97-3c_parallel
N         -4.83106        0.01722        0.11127
C         -3.72748        0.04022        0.10873
N         -3.41049        1.36259        0.13860
C         -2.06440        1.66529        0.11073
C         -0.92995        0.75764        0.00954
C          0.35421        1.45358       -0.06907
N          0.50649        2.43509       -0.56269
H          1.17847        3.19851       -0.64773
H         -0.35343        2.80610       -0.96745
C          1.56693        0.67261        0.08496
C          1.51528       -0.68081        0.06194
C          2.86806       -1.13260        0.24399
N          3.65639        0.01666        0.36087
C          2.84462        1.14759        0.26392
N          3.58870        1.96250        0.37040
H          4.40401        2.25033       -0.17259
H          3.39633        2.75190        0.99048
N          3.58721       -1.97058        0.33330
H          3.30369       -2.76801        0.90667
H          4.43383       -2.28069       -0.14906
C          0.33384       -1.35655       -0.09905
N          0.51096       -2.66334       -0.37532
H          1.23498       -2.97015       -1.02473
H         -0.29284       -3.27395       -0.52872
C         -0.88537       -0.71494       -0.01751
C         -2.04891       -1.58814        0.03812
N         -3.39482       -1.27884        0.07556
H         -2.42063       -2.62500        0.04288
H         -2.40573        2.71141        0.15500
H         -5.44180       -0.79845        0.05329
H         -5.45281        0.82415        0.04932
