25
Coordinates from ORCA-job ./opt_b97-3c_parallel
N         -3.86749       -1.68631        0.04322
C         -2.90166       -0.71831        0.04011
C         -3.36020        0.59280        0.03037
C         -2.61945        1.76354        0.01665
C         -1.24118        1.92476        0.00457
C         -0.22687        0.96437        0.00931
C          1.06932        1.50806       -0.01114
C          2.15444        0.65071       -0.00718
C          2.03720       -0.69518        0.01832
N          3.24005       -1.31073        0.01684
C          4.01592       -0.48857       -0.00691
C          3.54137        0.87734       -0.02609
H          4.11806        1.79587       -0.05293
H          5.03220       -0.86373       -0.01367
C          0.76986       -1.26112        0.03937
C         -0.38072       -0.44582        0.03270
C         -1.58165       -1.16471        0.04638
H         -1.47907       -2.24891        0.06219
H          0.68715       -2.34585        0.05888
H          1.23745        2.58249       -0.03143
H         -0.92371        2.96551       -0.01072
H         -3.19905        2.68357        0.01109
H         -4.43993        0.73090        0.03318
H         -4.82607       -1.41485       -0.14532
H         -3.59704       -2.64280       -0.15700
