25
Coordinates from ORCA-job ./opt_b97-3c_parallel
N         -3.75061       -1.85988       -0.01213
C         -2.86485       -1.20899        0.07096
N         -3.66728       -0.08036        0.04876
C         -2.94544        1.10103        0.03894
N         -3.59569        1.99190        0.04414
H         -4.60181        1.82924        0.09302
H         -3.47029        2.99671        0.16558
N         -1.58099        1.31703       -0.00317
C         -0.37705        0.72362       -0.02023
N          0.77950        1.42967       -0.09728
C          1.95135        0.75041       -0.09471
C          3.29790        1.35482       -0.18917
C          3.89948        0.12234       -0.10837
N          4.97480       -0.14934       -0.10479
H          5.73363        0.40050       -0.51161
H          5.43166       -0.95498        0.32681
N          3.24433       -1.09971       -0.00049
C          1.99248       -0.62933       -0.00018
N          0.85347       -1.35608        0.07451
C         -0.32439       -0.68243        0.05674
C         -1.54210       -1.54702        0.11279
H         -1.25973       -2.59595        0.19895
H          3.87752        2.27135       -0.28502
H         -4.71436       -1.88419       -0.34597
H         -3.43213       -2.82874       -0.01440
