31
Coordinates from ORCA-job ./opt_b97-3c_parallel
N         -6.17378       -0.13697        0.00086
C         -5.03037       -0.14873        0.00023
C         -3.57276       -0.14879       -0.00025
C         -2.94090       -1.40238       -0.00131
N         -3.71947       -2.53672       -0.00188
H         -3.28937       -3.45502       -0.00201
H         -4.73165       -2.45925       -0.00111
C         -1.57529       -1.67508       -0.00172
C         -0.45032       -0.84810       -0.00133
N          0.69788       -1.57526       -0.00178
C          1.88293       -0.95194       -0.00128
C          1.99238        0.41069       -0.00030
C          3.34343        0.68909        0.00031
C          4.01247        1.96612        0.00158
N          4.55946        2.96914        0.00250
C          4.00957       -0.52545       -0.00031
C          3.13251       -1.68369       -0.00148
C          3.63570       -3.01960       -0.00267
N          3.71849       -4.15941       -0.00341
H          5.09713       -0.55415        0.00010
C          0.84673        1.21251        0.00004
C          1.00849        2.65175        0.00121
N          1.11560        3.78976        0.00237
C         -0.42800        0.57062       -0.00040
C         -1.57045        1.39317        0.00027
C         -2.93630        1.10451        0.00058
N         -3.72055        2.23532        0.00228
H         -4.73241        2.15407        0.00051
H         -3.29423        3.15553        0.00077
H         -1.39604        2.46417        0.00091
H         -1.34236       -2.74137       -0.00242
