24
Coordinates from ORCA-job ./opt_b97-3c_parallel
N         -3.44330       -1.81792        0.03371
C         -2.73590       -0.65758       -0.07660
N         -1.67123       -0.90661       -0.07534
C         -0.44856       -0.35597       -0.04693
C          0.65291       -1.22591       -0.05826
C          1.94286       -0.70935       -0.02431
N          3.12036       -1.37164       -0.03127
C          3.92826       -0.58168        0.00390
C          3.51034        0.80204        0.04519
C          2.11484        0.63406        0.02235
C          1.06720        1.54068        0.03405
C         -0.24554        1.04539       -0.00394
C         -1.26481        2.01428       -0.00258
C         -2.65334        1.83897       -0.05086
C         -3.35164        0.63428       -0.09612
H         -4.43823        0.64511       -0.13881
H         -3.25528        2.74414       -0.05609
H         -0.94424        3.05336        0.03119
H          1.27206        2.60828        0.06832
H          4.12506        1.69543        0.08116
H          4.92817       -0.99899        0.00035
H          0.50301       -2.30266       -0.09395
H         -4.44049       -1.78646        0.21199
H         -2.95342       -2.68918        0.20184
