37
Coordinates from ORCA-job ./opt_b97-3c_parallel
N          5.31079        1.13302       -0.86523
C          4.27363        0.75686       -0.56606
C          2.95164        0.29256       -0.19907
C          2.95854       -1.00837        0.42709
N          2.30250       -1.87799        0.23532
C          1.28669       -1.81640       -0.19784
N          1.34575       -2.78924       -1.16027
H          0.49419       -3.04645       -1.64665
H          2.08277       -3.48366       -1.10886
C          0.20882       -0.85499       -0.08298
C         -1.10204       -1.35277        0.07022
N         -1.37399       -2.69300        0.16686
H         -2.29889       -2.97435        0.47545
H         -0.60267       -3.32980        0.33317
C         -2.15080       -0.44566        0.11446
C         -1.93498        0.88121        0.07742
C         -3.19148        1.54384        0.21864
N         -3.47738        0.44902        0.23960
C         -3.55537       -0.67968        0.21029
N         -4.63252       -1.51413        0.14658
H         -5.55661       -1.11196        0.03739
H         -4.49690       -2.46393       -0.18114
N         -3.90667        2.70097        0.32740
H         -3.45066        3.59330        0.17440
H         -4.91979        2.67123        0.32724
C         -0.65655        1.42457       -0.04678
N         -0.56774        2.78989        0.04733
H          0.34318        3.19022        0.24644
H         -1.38086        3.29298        0.38464
C          0.46097        0.54910       -0.16986
C          1.77975        1.04721       -0.40683
N          1.96685        2.30918       -0.92059
H          2.88245        2.55125       -1.28615
H          1.16198        2.78868       -1.31039
N          3.72170       -1.32473        1.51732
H          3.76495       -2.28944        1.82618
H          4.49061       -0.71484        1.77478
