25
Coordinates from ORCA-job ./opt_b97-3c_parallel
N         -4.31348       -0.03692        0.02774
C         -3.21288       -0.05832        0.08842
N         -2.88389        1.25565        0.23599
C         -1.53103        1.53013        0.27976
C         -0.43841        0.58165        0.13630
C          0.88351        1.19378        0.10486
N          1.05125        2.24069       -0.21866
H          1.99792        2.60899       -0.11934
H          0.49630        3.00202       -0.60379
C          2.14585        0.48445        0.04902
C          1.99239       -0.90843       -0.01165
C          3.29188       -1.44705       -0.06188
N          4.03142       -0.32151       -0.02825
C          3.45725        0.88121        0.04278
H          4.14558        1.74029        0.03381
H          3.84199       -2.39567       -0.11992
C          0.74099       -1.60475       -0.03638
C         -0.50286       -0.87836        0.02481
C         -1.64550       -1.76391       -0.03237
N         -2.97596       -1.39470       -0.03821
H         -1.60448       -2.86093       -0.11882
H          0.95820       -2.66836        0.04051
H         -1.55222        2.62544        0.38725
H         -4.91385       -0.80053       -0.28161
H         -4.87114        0.81194       -0.05735
