20
Coordinates from ORCA-job ./opt_b97-3c_parallel
N         -3.66141       -1.41276        0.23148
C         -2.77170       -0.76978        0.15928
N         -3.49580        0.40584        0.12893
C         -2.68236        1.52038        0.03211
N         -1.31912        1.71819       -0.04733
C         -0.25596        0.89815       -0.04985
C          1.04688        1.50465       -0.15444
C          2.14846        0.57743       -0.07628
N          3.44895        0.84313       -0.09854
C          3.95452       -0.39515       -0.00193
N          3.07799       -1.46952        0.08017
C          1.92986       -0.78608        0.03040
N          0.69284       -1.32728        0.08272
C         -0.37070       -0.49687        0.04687
N         -1.52300       -1.11173        0.12437
H          5.02473       -0.65006        0.01954
H          1.19009        2.56534       -0.33392
H         -3.22381        2.47794        0.01125
H         -4.49750       -1.19898       -0.30779
H         -3.19383       -2.18355       -0.23951
