26
Coordinates from ORCA-job ./opt_b97-3c_parallel
N          5.24098        0.10539       -0.11887
C          4.11799        0.06135        0.08788
C          2.67236        0.02068        0.06039
C          2.09375       -1.25007        0.05196
N          2.61278       -2.23286        0.05178
H          2.42752       -3.22320       -0.10055
H          3.62380       -2.12205       -0.02468
C          0.68550       -1.63661        0.03836
C         -0.41467       -0.80154        0.02366
C         -1.70383       -1.46959        0.01439
C         -2.81894       -0.66167       -0.00430
N         -4.11200       -1.10420       -0.01602
C         -4.87619        0.05157       -0.03592
N         -4.04792        1.16989       -0.03604
C         -2.73546        0.74985       -0.01614
N         -1.55921        1.29185       -0.00761
C         -0.42970        0.64421        0.01497
C          0.60008        1.53777        0.03387
C          1.94414        1.27479        0.04223
N          2.46754        2.25626        0.03154
H          3.48276        2.17024       -0.01264
H          2.26623        3.25078       -0.05814
H          0.29448        2.59509        0.06530
H         -5.97621        0.10443       -0.05062
H         -1.78368       -2.55312        0.02288
H          0.45872       -2.70723        0.03868
