34
Coordinates from ORCA-job ./opt_b97-3c_parallel
N         -5.77710       -0.55326        0.92088
C         -4.67087       -0.47765        0.64087
C         -3.26166       -0.38790        0.26241
C         -2.52144       -1.58691        0.27756
C         -1.18063       -1.77544       -0.13410
C         -0.81004       -3.16816       -0.36759
N         -0.52762       -4.26355       -0.53713
C         -0.14530       -0.80183       -0.16539
C          1.18464       -1.28033       -0.30404
C          2.25914       -0.42959       -0.15132
C          2.11806        0.85254        0.23698
N          3.31224        1.43277        0.49652
C          4.06555        0.62254        0.28946
N          5.38563        0.92365        0.45895
H          5.66575        1.87719        0.65917
H          6.09919        0.25929        0.17799
C          3.64620       -0.69286       -0.14356
C          4.33652       -1.89673       -0.48593
N          4.98662       -2.78164       -0.80242
C          0.83807        1.39113        0.33272
C          0.74697        2.70088        0.95308
N          0.66990        3.72278        1.45891
C         -0.30891        0.60649       -0.01324
C         -1.49602        1.28600       -0.38422
C         -1.32564        2.55176       -1.09183
N         -1.20243        3.53686       -1.65929
C         -2.82866        0.84866       -0.24654
N         -3.82019        1.76105       -0.56514
H         -3.57388        2.70988       -0.82951
H         -4.79491        1.53413       -0.39584
H          1.44076       -2.31861       -0.49004
N         -3.21488       -2.71886        0.67253
H         -2.79164       -3.63303        0.54907
H         -4.22037       -2.66778        0.80179
