28
Coordinates from ORCA-job ./opt_b97-3c_parallel
N         -5.55769       -0.05605        0.64492
C         -4.43912       -0.09932        0.42067
C         -3.03848       -0.08881        0.11940
C         -2.50040        1.16026       -0.16327
N         -1.24175        1.65995       -0.25199
C         -0.07723        0.89997       -0.07812
C          1.22581        1.53276        0.02060
C          2.36628        0.72440        0.06056
C          3.80249        1.10609        0.10559
C          4.52002       -0.06756        0.08388
N          5.60545       -0.29156        0.07509
H          6.10059       -1.16495       -0.12068
H          6.34991        0.38979        0.24239
N          3.67514       -1.17086        0.04268
C          2.38080       -0.70573        0.03446
N          1.15474       -1.15314        0.00126
C          0.00208       -0.54702       -0.10500
C         -1.01779       -1.36516       -0.47594
C         -2.25277       -1.29317        0.09248
N         -2.49846       -2.34701        0.32220
H         -2.21329       -3.32636        0.31836
H         -3.50592       -2.36016        0.48746
H         -0.90309       -1.92230       -1.41015
H          4.30127        2.07400        0.13097
H          1.32847        2.61649        0.04129
N         -2.80179        2.22360       -0.27588
H         -3.80946        2.04462       -0.25444
H         -2.73166        3.24026       -0.35441
