26
Coordinates from ORCA-job ./opt_b97-3c_parallel
N         -3.44301       -2.81166       -0.59432
C         -3.06922       -1.94952        0.05576
C         -2.55874       -0.61322        0.04521
C         -1.23410       -0.28927        0.02904
C         -1.22990        1.15117        0.02050
C         -2.43948        1.79547        0.03583
C         -3.20538        0.66050        0.04521
N         -4.29272        0.85617        0.04285
H         -4.91921        1.64253        0.21046
H         -4.88749        0.04265       -0.11182
H         -2.62263        2.61402        0.73146
N         -0.00633        1.81854       -0.00420
C          1.15932        1.05549       -0.02869
C          2.38592        1.83028       -0.05391
C          3.70006        1.45514       -0.17655
C          4.16418        0.21279       -0.13462
C          3.32338       -0.83889        0.02169
N          3.63422       -1.88732        0.16943
H          4.65111       -1.82059        0.20117
H          3.41133       -2.86090        0.37372
N          2.06005       -1.25005        0.06712
C          1.02977       -0.39262       -0.01205
N         -0.12877       -0.97055        0.02127
H          5.23446        0.04284       -0.25089
H          4.42778        2.25157       -0.31993
H          2.21379        2.90309       -0.02191
