22
Coordinates from ORCA-job ./opt_b97-3c_parallel
N         -4.32287       -0.13201       -0.27064
C         -3.26395        0.16828       -0.18998
N         -2.60722       -1.00427       -0.15410
C         -1.34889       -0.59039       -0.03535
C         -1.29400        0.78803       -0.00191
C         -2.64057        1.39012       -0.11508
H         -3.20847        2.31698       -0.14801
N         -0.11979        1.44463        0.12616
C          1.01288        0.70776        0.22591
N          2.21607        1.30354        0.35242
C          3.26581        0.96820        0.43079
C          3.87213       -0.06780       -0.22656
C          3.30155       -1.27380       -0.28222
C          2.11158       -1.52383        0.34761
C          0.93429       -0.70121        0.18854
N         -0.24292       -1.35651        0.05976
H          2.06243       -2.38651        1.00431
H          3.79915       -2.07913       -0.81673
H          4.82558        0.10083       -0.72174
H          3.61729        2.00596        0.33130
H         -5.12436        0.47965       -0.13323
H         -4.60253       -1.06140        0.03760
