28
Coordinates from ORCA-job ./opt_b97-3c_parallel
N          4.09663        1.55169        0.01166
C          3.26475        0.47335       -0.03920
N          3.15534       -0.65121       -0.13388
C          2.87755       -1.74681       -0.23427
C          1.62896       -1.06728       -0.15427
C          1.85902        0.25187       -0.02876
C          0.82136        1.17267        0.06775
C         -0.51383        0.71917        0.02609
C         -1.56078        1.67147        0.08886
N         -1.28408        2.98980        0.33797
H         -2.05524        3.61273        0.55060
H         -0.37027        3.22930        0.70569
C         -2.91351        1.38136       -0.11814
C         -3.42572        0.09078       -0.49171
N         -3.08801       -0.95370       -0.36522
C         -2.06716       -1.24460       -0.06402
N         -2.40493       -2.33853        0.68555
H         -3.35006       -2.70425        0.65767
H         -1.68661       -2.87984        1.15230
C         -0.73882       -0.68018       -0.08401
C          0.33688       -1.57474       -0.18392
H          0.17072       -2.64527       -0.27625
H         -4.36242       -0.14616       -0.98225
H         -3.67164        2.15929       -0.06049
H          1.07365        2.22602        0.14868
H          3.06865       -2.79494       -0.42984
H          3.70802        2.48514       -0.05960
H          5.08370        1.43040       -0.18417
