19
Coordinates from ORCA-job ./opt_b97-3c_parallel
C         -3.02279       -1.13702       -0.00134
N         -3.76449       -0.02025       -0.02200
C         -3.16552        1.18299       -0.03249
N         -1.78988        1.31514       -0.01663
C         -0.60924        0.68293        0.00329
C          0.59322        1.47677        0.01525
C          1.81630        0.71459       -0.00402
N          3.06701        1.16110       -0.02342
C          3.74153        0.00215       -0.03023
N          3.02507       -1.18765       -0.01506
C          1.79281       -0.66997       -0.00017
N          0.64451       -1.38208        0.01287
C         -0.53030       -0.71445        0.01155
C         -1.73695       -1.58714        0.01075
H         -1.53992       -2.65701        0.01610
H          4.82992       -0.15859       -0.04734
H          0.58261        2.56060        0.06696
H         -3.76200        2.10755       -0.05176
H         -3.78748       -1.92783        0.00652
