22
Coordinates from ORCA-job ./opt_b97-3c_parallel
N         -3.55203       -1.41989        0.08130
C         -2.77122       -0.65066       -0.03359
N         -3.41218        0.56176        0.00174
C         -2.59991        1.63368       -0.07308
C         -1.23206        1.85957       -0.11456
C         -0.17628        0.86293       -0.11359
N          1.04265        1.32031       -0.09798
C          2.12347        0.60737       -0.07194
C          3.44633        0.93431       -0.01521
C          4.02332       -0.31646       -0.04553
N          3.16870       -1.40671       -0.09565
C          1.95933       -0.78972       -0.10996
C          0.72520       -1.39397       -0.15055
C         -0.42924       -0.51405       -0.14022
N         -1.57469       -1.10022       -0.16510
H          0.61756       -2.47457       -0.18047
H          5.10330       -0.52808       -0.02748
H          3.80348        1.68976        0.68102
H         -0.89099        2.89223       -0.13049
H         -3.16333        2.57978       -0.06549
H         -3.39699       -2.40418        0.29533
H         -4.53200       -1.23256        0.28972
