29
Coordinates from ORCA-job ./opt_b97-3c_parallel
N         -5.64125       -0.27605       -0.45476
C         -4.52565       -0.07190       -0.31154
C         -3.11553        0.20314       -0.12952
C         -2.27614       -0.96115       -0.09875
N         -1.18762       -1.03869       -0.10422
C         -0.06056       -0.31230       -0.03861
C         -0.09358        1.10338        0.07329
N          1.05661        1.82531        0.15883
C          2.20788        1.13739        0.12470
C          3.52715        1.61955        0.17934
C          4.24745        0.37020        0.07596
N          5.61087        0.35005        0.08225
H          6.10330       -0.51677       -0.10385
H          6.13449        1.21783        0.05104
N          3.64460       -0.58043       -0.01169
C          2.34348       -0.20540        0.00762
C          1.18607       -0.97509       -0.07423
C          1.28795       -2.41322       -0.19222
N          1.35449       -3.55034       -0.28626
H          3.91865        2.62758        0.26969
C         -1.26716        1.88108        0.08541
C         -2.61954        1.51277       -0.02407
N         -3.51143        2.55549       -0.03742
H         -4.47642        2.36785       -0.29025
H         -3.16058        3.49873       -0.16253
H         -1.09665        2.95409        0.17059
N         -2.61973       -2.16875        0.44349
H         -1.96164       -2.93931        0.39613
H         -3.60167       -2.39871        0.55246
