31
Coordinates from ORCA-job ./opt_b97-3c_parallel
N         -4.64679       -2.04680       -0.15526
C         -3.77126       -1.31340       -0.10313
C         -2.65180       -0.37617       -0.05212
C         -3.01728        0.97529        0.10123
C         -2.18129        2.08018        0.13249
C         -0.80447        2.14826        0.05220
C          0.14442        1.13204       -0.03728
C          1.45957        1.62833       -0.07001
C          2.57135        0.79794       -0.11799
C          2.42278       -0.61860       -0.08117
C          3.86082       -0.63195        0.01002
N          4.12321       -1.90629        0.42704
H          3.35482       -2.47184        0.77090
H          5.06011       -2.13324        0.74089
C          4.91233        0.32645       -0.21401
C          3.86009        1.29658       -0.18523
H          4.04196        2.36831       -0.21807
H          5.83861        0.37752        0.34889
C          1.06523       -1.07463       -0.13777
C         -0.08954       -0.26133       -0.10494
C         -1.34647       -0.92391       -0.15329
N         -1.29754       -2.29349       -0.32994
H         -0.43466       -2.70527       -0.66476
H         -2.16001       -2.77984       -0.55162
H          1.09327       -2.16030       -0.15639
H          1.63691        2.70216       -0.06074
H         -0.42807        3.16862        0.09009
H         -2.66808        3.04964        0.22962
N         -4.34601        1.31305        0.21769
H         -4.58838        2.25030        0.51833
H         -5.02439        0.57342        0.36923
