27
Coordinates from ORCA-job ./opt_b97-3c_parallel
N          3.71336        2.97407        0.08359
C          3.08685        2.04381        0.30300
C          2.57745        0.73046        0.05969
C          1.27224        0.13527        0.06006
C          1.19943       -1.24434        0.10468
C          2.43350       -1.96773        0.14386
C          3.01087       -0.64808        0.05081
N          4.36262       -0.81914       -0.06982
H          4.96542       -0.00730        0.01647
H          4.76137       -1.73371        0.11088
H          2.69199       -2.80934       -0.49246
C         -0.03828       -1.88302        0.10334
C         -1.21913       -1.13716        0.05681
N         -2.40360       -1.78836        0.05279
C         -3.49392       -1.60497        0.02417
C         -4.08789       -0.29286       -0.02925
C         -3.35671        0.94825       -0.04593
N         -3.96381        2.16862       -0.06840
H         -3.40551        3.00510       -0.19537
H         -4.96596        2.23375       -0.20551
N         -2.25641        1.04116       -0.03079
C         -1.14603        0.27161        0.01299
C          0.10439        0.89401        0.01442
H          0.16533        1.97955       -0.02127
H         -5.15733       -0.43689        0.10387
H         -3.98579       -2.56939        0.05621
H         -0.08504       -2.96924        0.13679
