29
Coordinates from ORCA-job ./opt_b97-3c_parallel
N         -4.20802       -2.19602       -0.81312
C         -3.60310       -1.29806       -0.44918
C         -2.85963       -0.17476        0.04695
C         -3.62593        0.92136        0.35823
N         -4.94402        1.00842        0.60970
H         -5.57611        0.28166        0.27799
H         -5.42358        1.90380        0.54166
C         -2.82860        1.98821        0.41434
C         -1.43501        1.56749        0.15350
C         -1.47644        0.20688       -0.03946
C         -0.33445       -0.59282       -0.19108
C         -0.54012       -2.00239       -0.44218
N         -0.71216       -3.10951       -0.66694
C          0.95464        0.00158       -0.12986
C          0.98443        1.41779       -0.05332
N          1.98408        2.31890       -0.18436
C          3.17552        1.77735       -0.43057
N          3.91227        0.71971       -0.56180
C          3.53583       -0.37519        0.02351
N          4.58873       -0.34549        0.40344
H          4.35514       -1.16469        0.96174
H          5.60049       -0.24154        0.43847
C          2.23290       -0.82385       -0.10991
C          2.41287       -1.92588       -0.08493
N          2.43612       -2.94923        0.43099
H          3.89714        2.60177       -0.53173
C         -0.18116        2.25722        0.10408
H         -0.13519        3.33884        0.21136
H         -3.21450        2.97802        0.64978
