32
Coordinates from ORCA-job ./opt_b97-3c_parallel
N         -4.83622       -0.04641       -0.21404
C         -3.73805       -0.05823       -0.12611
N         -3.41211       -1.35896        0.15441
C         -2.04898       -1.43725        0.28440
C         -0.92161       -0.67008        0.20663
C          0.25581       -1.39694        0.15783
N          0.39622       -2.49604        0.24062
H          1.33305       -2.71186       -0.09781
H          0.18540       -3.19869        0.94776
C          1.49620       -0.68450       -0.04137
C          1.47997        0.71120       -0.12053
C          2.83668        1.09415       -0.30758
N          3.32452        2.08095       -0.39588
H          4.14197        2.23307        0.19305
H          3.48563        2.59802       -1.25878
C          3.64152       -0.02324       -0.35797
C          2.79925       -1.10984       -0.19070
N          3.37172       -2.05422       -0.22721
H          4.13945       -2.28103        0.40321
H          3.56822       -2.52481       -1.10891
H          4.64515       -0.00689        0.07312
C          0.30381        1.51555        0.10934
N          0.42158        2.36746        0.80574
H          1.38773        2.56408        0.53717
H          0.13088        3.15737        1.38201
C         -0.90195        0.70419        0.03740
C         -2.01823        1.58770       -0.26452
N         -3.36668        1.24864       -0.34385
H         -2.08229        2.67374       -0.43335
H         -2.32066       -2.49458        0.42613
H         -5.45487       -0.85627       -0.19114
H         -5.43608        0.77296       -0.12348
