26
Coordinates from ORCA-job ./opt_b97-3c_parallel
N         -2.05333       -2.28373        0.68087
C         -1.94128       -1.11799       -0.02730
N         -3.00968       -0.98496       -0.27042
C         -3.55420       -0.02778       -0.36492
C         -3.26105        1.35149       -0.08075
C         -1.97141        1.84995        0.11775
C         -0.78665        1.09611        0.09589
C          0.41795        1.81191        0.18479
C          1.62048        1.11748        0.09700
C          1.65422       -0.21776       -0.07751
C          3.01112       -0.63287       -0.18487
N          3.70048       -1.77343       -0.46956
H          3.19392       -2.58353       -0.80828
H          4.68714       -1.70964       -0.69167
N          3.07135        0.48477       -0.00639
C          2.95767        1.60556        0.13309
H          3.31695        2.57682        0.45013
C          0.49008       -0.97455       -0.13550
C         -0.74150       -0.31559       -0.02937
H          0.54319       -2.05355       -0.25700
H          0.42333        2.89398        0.29800
H         -1.88805        2.92475        0.26228
H         -4.11436        2.02463       -0.07007
H         -4.47736       -0.45977       -0.73316
H         -2.92503       -2.80076        0.68413
H         -1.23961       -2.69388        1.12440
