32
Coordinates from ORCA-job ./opt_b97-3c_parallel
N         -3.72543       -3.42434        0.68109
C         -3.08462       -2.48094        0.64867
C         -2.45350       -1.28443        0.17561
C         -3.11887       -0.00709       -0.00100
N         -4.49194       -0.00064       -0.00284
H         -5.01595       -0.86052        0.14473
H         -5.00766        0.86443       -0.15422
C         -2.45507        1.27363       -0.17603
C         -3.08228        2.46957       -0.65023
N         -3.72718        3.41224       -0.68154
C         -1.14548        0.68100       -0.08456
C         -1.14377       -0.68917        0.08333
C          0.06358       -1.39540        0.12832
C          0.06230       -2.83409        0.29830
N          0.05645       -3.96487        0.45766
C          1.28767       -0.70685        0.02487
N          2.45957       -1.38842       -0.06123
C          3.55462       -1.29512       -0.19408
N          4.23589       -2.31121       -0.79787
H          5.24192       -2.24002       -0.90876
H          3.81158       -3.22754       -0.88286
C          4.15287       -0.00023        0.00038
C          3.55329        1.29424        0.19473
N          4.23447        2.31081        0.79819
H          3.80972        3.22694        0.88301
H          5.24049        2.24004        0.90992
N          2.45804        1.38720        0.06184
C          1.28630        0.70404       -0.02445
C          0.06291        1.39162       -0.12931
C          0.05910        2.82920       -0.29908
N          0.05548        3.96111       -0.45694
H          5.24074        0.00000        0.00110
