28
Coordinates from ORCA-job ./opt_b97-3c_parallel
N         -4.93417       -2.23946        0.03339
C         -3.99757       -1.59199        0.13194
C         -3.12231       -0.47152       -0.01151
C         -1.70012       -0.29424        0.00819
C         -1.21465        0.99047        0.07118
N          0.10280        1.27387        0.08430
C          1.03275        0.27237        0.04314
C          2.40864        0.64358        0.06167
C          2.69470        2.07185        0.08692
N          2.93434        3.19009        0.09647
C          3.54662       -0.20979        0.05985
N          4.80787        0.33383        0.10907
H          5.61121       -0.26225       -0.05637
H          4.91706        1.33561       -0.01278
C          3.55536       -1.60629        0.01800
C          2.43057       -2.48277       -0.05893
N          1.40422       -2.11863       -0.05078
C          0.58137       -1.06757       -0.01249
C         -0.78975       -1.34152       -0.03367
H         -1.14283       -2.36982       -0.08179
H          2.41782       -3.56592       -0.07826
H          4.48752       -2.16780        0.02996
C         -2.17403        2.04962        0.12263
C         -3.13193        0.97517       -0.00561
N         -4.36073        1.56452       -0.13770
H         -4.45269        2.55970        0.03511
H         -5.19206        0.98631       -0.07110
H         -2.15380        2.95100       -0.48231
