29
Coordinates from ORCA-job ./opt_b97-3c_parallel
N          5.99528        0.43176        0.10703
C          4.86024        0.30470        0.09653
C          3.42729        0.12243        0.04000
C          2.68852        1.30793       -0.02840
N          3.06043        2.35586       -0.04961
H          2.77802        3.33235        0.03089
H          4.07999        2.36088       -0.02174
C          1.24216        1.52139       -0.04336
C          0.24646        0.56272        0.00309
N         -1.04965        1.09337        0.01429
C         -2.08117        0.16819        0.02693
C         -1.86623       -1.24003        0.04283
N         -3.12729       -1.83214        0.04060
C         -4.01281       -0.81574        0.02651
N         -5.06452       -1.16929        0.02378
H         -5.57087       -2.05728        0.02090
H         -5.79369       -0.45185        0.02571
C         -3.47437        0.44678        0.01853
C         -4.00724        1.77241        0.00485
N         -4.47343        2.81557       -0.00222
N         -0.64080       -1.66024        0.05907
C          0.40388       -0.87661        0.02059
C          1.55980       -1.58752       -0.09872
C          2.86713       -1.21275        0.05121
N          3.50579       -2.11917        0.12630
H          3.48405       -3.13768        0.10314
H          4.49049       -1.86198        0.05023
H          1.39870       -2.64521       -0.34711
H          0.86752        2.54976       -0.07353
