29
Coordinates from ORCA-job ./opt_b97-3c_parallel
N         -5.85329       -0.52602       -0.00508
C         -4.73349       -0.29705       -0.00021
C         -3.30690       -0.04454        0.00066
C         -2.80499        1.31347        0.00059
C         -1.50867        1.75191        0.00138
C         -0.31534        1.08333        0.00201
N          0.54322        1.80138        0.00170
C          1.86580        1.53523        0.00165
N          2.88931        2.39676        0.00107
C          3.46499        1.43444        0.00093
C          3.74173        0.08215        0.00051
C          4.67466       -0.50672       -0.00053
N          5.34861       -1.42985        0.00093
C          2.27044        0.23208        0.00146
C          1.30687       -0.78187        0.00181
C          1.79417       -2.14147        0.00120
N          2.16659       -3.22169        0.00018
C         -0.10123       -0.35628        0.00192
C         -1.06579       -1.35438        0.00209
C         -2.51901       -1.19863        0.00134
N         -2.86014       -2.25840        0.00179
H         -3.87072       -2.38935       -0.00020
H         -2.44815       -3.18971        0.00061
H         -0.67806       -2.37468        0.00231
H          4.38577        2.04173        0.00193
H         -1.40699        2.84935        0.00129
N         -3.51745        2.16766        0.00048
H         -4.50328        1.91114        0.00000
H         -3.48223        3.18513        0.00093
