28
Coordinates from ORCA-job ./opt_b97-3c_parallel
N          3.97841        2.74943        0.00539
C          3.13656        1.97903        0.07779
C          2.83599        0.58244        0.01887
C          1.58048       -0.11049        0.02777
C          1.61049       -1.48644        0.07953
C          2.89325       -2.11985        0.13316
C          3.37135       -0.76129        0.02235
N          4.73145       -0.72084       -0.12342
H          5.19943        0.17804       -0.05820
H          5.27526       -1.55817        0.05332
H          3.19418       -2.95823       -0.48726
C          0.40938       -2.18564        0.07589
C         -0.79992       -1.48024        0.02772
C         -1.96070       -2.26310        0.02230
C         -3.30193       -1.75136       -0.02386
N         -3.80997       -0.77227       -0.00883
C         -3.27694        0.19314       -0.03231
N         -4.43252        0.93225       -0.05567
H         -5.33406        0.48150        0.05351
H         -4.38743        1.94368        0.00806
C         -1.93404        0.73660       -0.04181
C         -1.85950        2.18472       -0.06786
N         -1.81294        3.32723       -0.08012
C         -0.76841       -0.05915       -0.01048
N          0.42816        0.58972       -0.01440
H         -4.23586       -2.30130        0.00462
H         -1.91369       -3.34956        0.04893
H          0.41848       -3.27312        0.11087
