26
Coordinates from ORCA-job ./opt_b97-3c_parallel
N         -3.76094       -1.34877       -1.07986
C         -3.73988       -0.96653       -0.00091
C         -2.69849        0.01986        0.05760
C         -3.02895        1.41882        0.02898
N         -3.96693        2.00202       -0.03185
H         -4.66976        1.35152       -0.38260
H         -4.47654        2.82130        0.29750
C         -2.01874        2.35350        0.05682
C         -0.96495        1.47773        0.06913
N          0.37581        1.81700        0.01561
C          1.33808        0.81818        0.03871
N          2.58806        1.43181       -0.07620
C          3.74670        0.68210       -0.07251
N          4.67222        1.27082       -0.21669
H          5.62334        0.89749       -0.19549
H          4.76500        2.20393       -0.62058
N          4.29200       -0.56932        0.02938
C          3.26223       -1.46069        0.16455
N          1.90599       -1.67102        0.22194
C          1.00605       -0.60393        0.14343
C         -0.39478       -0.98218        0.15832
C         -0.81933       -2.35040        0.21683
N         -1.11888       -3.45100        0.25814
C         -1.33633        0.10658        0.10506
H          3.60780       -2.50250        0.27214
H         -2.03328        3.19998        0.74605
