27
Coordinates from ORCA-job ./opt_b97-3c_parallel
N         -3.96172       -2.91905        0.00183
C         -3.53403       -1.85943       -0.02538
C         -2.95167       -0.55394       -0.03716
C         -1.55160       -0.35041        0.00179
C         -1.30011        1.03490        0.02668
C         -2.47355        1.73235       -0.03778
C         -3.43492        0.74063       -0.05429
N         -4.47644        1.10654       -0.06085
H         -4.91549        2.00781       -0.24435
H         -5.23045        0.45579        0.15486
H         -2.55502        2.61339       -0.67359
N         -0.06133        1.40589        0.11130
C          0.97436        0.62199        0.08286
C          2.28683        1.23054        0.09471
C          2.80950        2.55870        0.14232
N          3.08255        3.66821        0.14856
C          3.56139        0.53061        0.06026
N          3.78307       -0.80217       -0.00871
C          2.67824       -1.62261       -0.03025
N          3.28064       -2.54649       -0.10601
H          4.27441       -2.77156       -0.05769
H          2.81006       -3.42287       -0.33146
N          1.42303       -1.92281       -0.01921
C          0.85678       -0.76146        0.03760
C         -0.48680       -1.32164        0.07748
H         -0.91050       -1.99108        0.82666
H          4.65258        0.67992        0.05890
