32
Coordinates from ORCA-job ./opt_b97-3c_parallel
N         -1.80621       -4.10376        0.80831
C         -1.68988       -2.99518        0.55343
C         -1.52428       -1.59480        0.22405
C         -2.79104       -1.01662       -0.15221
N         -3.26431       -0.03521        0.02001
C         -2.67067        0.87312        0.22195
N         -3.73958        1.56990        0.73428
H         -3.65428        2.57208        0.86780
H         -4.67556        1.19395        0.62630
C         -1.30932        1.34884        0.03877
C         -1.31963        2.79495        0.15830
N         -1.34744        3.93185        0.27831
C         -0.16178        0.50175       -0.02224
C          1.15136        1.02074       -0.23253
C          1.43668        2.36816       -0.68345
N          1.68895        3.41897       -1.05649
C          2.27299        0.19226       -0.09719
C          2.12977       -1.13496        0.22676
C          0.86955       -1.68928        0.34420
C         -0.28888       -0.90901        0.18224
H          0.81767       -2.75754        0.53767
C          3.32199       -1.91779        0.36322
C          4.03783       -0.71005        0.04138
N          5.39707       -0.83228       -0.00104
H          5.96367        0.00721       -0.05706
H          5.82574       -1.67828        0.35791
C          3.62970        0.63289       -0.28300
H          4.00471        1.20661       -1.12577
H          3.53398       -2.58029        1.19681
N         -3.60263       -1.52046       -1.13449
H         -3.47630       -2.48020       -1.43689
H         -4.51143       -1.09753       -1.28779
