28
Coordinates from ORCA-job ./opt_b97-3c_parallel
N          3.17210        3.14030        0.09675
C          2.90821        2.02989        0.05086
C          2.53005        0.63906        0.00125
C          3.57000       -0.28449        0.05768
N          4.65655       -0.06247        0.13933
H          5.56022       -0.53552        0.14957
H          4.86094        0.92317        0.30707
C          3.52406       -1.67012        0.01908
C          2.40875       -2.46289       -0.05895
N          1.08652       -2.27712       -0.10827
C          0.51076       -1.02070       -0.11919
N         -0.77472       -1.22719       -0.16163
C         -1.56418       -0.19757       -0.11724
C         -1.23087        1.12638       -0.14433
C         -2.35778        1.87926       -0.02017
C         -3.42365        1.09102        0.08073
N         -4.67841        1.54861        0.21425
H         -4.93197        2.48059       -0.11175
H         -5.47700        0.93270        0.06356
C         -2.98676       -0.20320        0.03363
C         -3.72681       -1.42010        0.16772
N         -4.27940       -2.41319        0.28441
H         -2.38100        2.96777       -0.01247
C          0.18282        1.40296       -0.15676
C          1.12576        0.29579       -0.09573
H          0.18304        2.37191       -0.65411
H          2.60943       -3.54535       -0.07483
H          4.44855       -2.25737        0.05472
