28
Coordinates from ORCA-job ./opt_b97-3c_parallel
N         -5.25626        0.35930       -0.71572
C         -4.56430        0.22363        0.18303
C         -3.17866       -0.16277        0.15353
C         -2.26259        0.94149        0.28579
N         -1.16256        0.85170        0.30951
C         -0.19012        0.36112        0.09068
C         -0.17233       -1.07585       -0.06069
N          1.03914       -1.74506       -0.17866
C          2.21462       -1.01279       -0.07989
N          3.53068       -1.41177       -0.05272
C          4.33457       -0.29901        0.11778
N          5.43782       -0.30425        0.17708
H          6.09992       -1.05872        0.36775
H          6.01396        0.51577       -0.02190
N          3.49393        0.79876        0.19686
C          2.16743        0.40965        0.05046
C          0.97371        1.09532       -0.01491
C          1.12690        2.04297       -0.58524
N          1.46447        3.02205       -1.06900
C         -1.34430       -1.93359       -0.05661
C         -2.72766       -1.47526        0.02992
N         -3.35469       -2.38574       -0.04263
H         -3.47110       -3.39628        0.02896
H         -4.28075       -2.01526       -0.25894
H         -1.14885       -3.00298       -0.15669
N         -2.29374        2.04458        0.40291
H         -1.99993        3.01847        0.34687
H         -3.30909        2.05412        0.31278
