24
Coordinates from ORCA-job ./opt_b97-3c_parallel
N         -3.66430       -1.78339        0.00901
C         -2.89516       -0.65877        0.03614
N         -2.89269        0.47517        0.04454
C         -2.71807        1.59634        0.04017
C         -1.40927        1.03556        0.03334
C         -1.51616       -0.30771        0.03546
C         -0.39361       -1.12744        0.03347
C          0.87077       -0.52605        0.02458
C          2.01857       -1.39511        0.02328
N          3.12093       -1.35884        0.01273
C          3.71982       -0.43279       -0.00780
C          3.48694        0.98667       -0.01331
C          2.21917        1.57163       -0.00107
C          0.99370        0.88553        0.01602
C         -0.17024        1.67028        0.02276
H         -0.11725        2.75648        0.01812
H          2.19174        2.65911       -0.00764
H          4.37662        1.61096       -0.02922
H          4.66817       -0.95823       -0.01311
H          2.04488       -2.47798        0.07339
H         -0.50143       -2.20944        0.03788
H         -3.00963        2.63915        0.02021
H         -4.66414       -1.70146       -0.13661
H         -3.22902       -2.68277       -0.16147
