23
Coordinates from ORCA-job ./opt_b97-3c_parallel
N          3.60016        1.49696       -0.08110
C          2.76923        0.77050       -0.02852
C          3.25264       -0.58273       -0.00755
C          2.41903       -1.67844        0.03704
N          1.09849       -1.93347        0.03597
C          0.11908       -0.95077        0.00092
N         -1.06447       -1.50805       -0.02447
C         -2.03987       -0.63765       -0.02663
C         -1.77638        0.78873       -0.00231
C         -2.99933        1.38845        0.00682
C         -3.92524        0.43754       -0.01912
C         -3.39215       -0.77641       -0.04157
H         -3.94001       -1.71595       -0.06879
H         -4.99619        0.63044       -0.02184
H         -3.18754        2.45907        0.03361
N         -0.68181        1.04764        0.00157
C          0.30207        0.49843        0.00822
C          1.47530        1.19109        0.05472
H          1.35726        2.27406        0.15646
H          2.95436       -2.63982        0.05397
H          4.32960       -0.74697       -0.02962
H          4.60277        1.31234       -0.11974
H          3.50140        2.50890       -0.15911
