20
Coordinates from ORCA-job ./opt_b97-3c_parallel
C         -3.56629       -0.05937        0.00542
C         -2.90781       -1.33832       -0.07922
N         -1.80363       -1.38702       -0.09161
C         -0.65373       -0.67860       -0.05538
N          0.54157       -1.32794       -0.10339
C          1.68271       -0.60714       -0.06196
N          2.96655       -1.02719       -0.10045
C          3.65077       -0.13131       -0.04413
C          2.99612        1.15251        0.05134
C          1.64871        0.74924        0.03190
C          0.46790        1.46905        0.08237
C         -0.72070        0.73719        0.03500
N         -1.89760        1.40206        0.07337
C         -2.99453        1.26224        0.05901
H         -3.32942        2.16275       -0.44103
H          0.46897        2.55404        0.15358
H          3.44677        2.13722        0.11826
H          4.70789       -0.36651       -0.06975
H         -3.13020       -2.25084        0.46042
H         -4.64798       -0.14816       -0.05508
