28
Coordinates from ORCA-job ./opt_b97-3c_parallel
N         -3.85746       -2.82081        0.22981
C         -3.46392       -1.75478        0.11167
C         -2.92850       -0.43321       -0.00499
C         -1.53910       -0.16777       -0.07408
C         -1.35779        1.22877       -0.10045
C         -2.56453        1.86991       -0.12672
C         -3.47576        0.83407       -0.04581
N         -4.52795        1.16421       -0.00117
H         -5.22979        0.44071        0.14885
H         -5.03531        2.01592       -0.23688
H         -2.72231        2.71553       -0.79498
N         -0.13909        1.66614       -0.06952
C          0.93665        0.94019       -0.03121
C          2.20324        1.63709        0.02726
C          3.50950        1.00007        0.07685
N          3.81270       -0.31666        0.02772
C          2.76397       -1.20688       -0.02197
N          3.39262       -2.11384       -0.09168
H          3.01241       -3.03787       -0.29424
H          4.40607       -2.20862       -0.15900
N          1.52827       -1.57610       -0.04034
C          0.89399       -0.44946       -0.03840
C         -0.42043       -1.07913       -0.00485
H         -0.81433       -1.97338        0.47854
N          4.53411        1.40017        0.13578
H          4.31136        2.39151        0.22089
H          5.51062        1.30464        0.41153
H          2.17992        2.72367        0.04743
