27
Coordinates from ORCA-job ./opt_b97-3c_parallel
N          2.59482        3.40575        0.03662
C          2.39157        2.28100        0.00820
C          2.13990        0.84491       -0.01164
C          3.29986        0.02384        0.02648
C          3.34656       -1.37157       -0.00809
C          2.24436       -2.27588       -0.09424
N          1.21367       -1.92473       -0.05194
C          0.33662       -0.91276       -0.02322
C         -1.04641       -1.21438        0.01578
C         -1.53937       -2.57387        0.07015
N         -1.92325       -3.64926        0.12635
C         -1.95328       -0.15604       -0.00017
C         -1.45346        1.09608       -0.05780
N         -0.16110        1.43966       -0.06883
C          0.77189        0.44197       -0.04135
C         -2.58095        1.93005       -0.06835
C         -3.62835        0.93627       -0.00451
N         -4.93148        1.33786        0.00376
H         -5.68073        0.65954        0.08097
H         -5.16503        2.32426       -0.03114
N         -3.30731       -0.14867        0.03125
H         -2.66853        3.01051       -0.12397
H          2.25959       -3.34632       -0.26070
H          4.29495       -1.90527        0.02130
N          4.54213        0.60698        0.10729
H          4.62561        1.61924        0.10579
H          5.37983        0.03905        0.06130
