28
Coordinates from ORCA-job ./opt_b97-3c_parallel
N          1.96002        3.39667        0.03084
C          2.06336        2.25960        0.01587
C          2.13934        0.81682        0.00114
C          3.46780        0.40142       -0.00740
C          3.99111       -0.94907       -0.02300
C          3.26963       -2.11434       -0.01345
C          1.85440       -2.31827        0.00518
C          0.81919       -1.40529        0.00386
N         -0.37484       -2.06522        0.01314
C         -1.55198       -1.33430        0.01292
C         -1.48600        0.07277       -0.00008
C         -2.84005        0.54156       -0.00989
C         -3.39890        1.85423       -0.02930
N         -3.88443        2.88674       -0.04527
C         -3.66442       -0.63996        0.00528
N         -4.74451       -0.89113        0.00732
H         -5.38254       -0.09129       -0.00440
H         -5.35040       -1.71354        0.02128
N         -2.86076       -1.77205        0.01825
C         -0.29820        0.76826       -0.01373
C          0.93835       -0.00723       -0.00447
H         -0.39832        1.85082       -0.03688
H          1.60811       -3.37854        0.01436
H          3.83810       -3.04039       -0.01802
H          5.07353       -1.12349       -0.03775
N          4.42572        0.96865       -0.00653
H          5.43187        0.83118        0.08423
H          4.28196        1.97808       -0.01064
