25
Coordinates from ORCA-job ./opt_b97-3c_parallel
N          4.09084        1.54177        0.03887
C          3.28136        0.79174        0.02387
C          3.71953       -0.57812        0.02991
C          2.88819       -1.67148        0.01783
N          1.56957       -1.90970        0.00127
C          0.62028       -0.90397       -0.01431
N         -0.56415       -1.44725       -0.02544
C         -1.69375       -0.80845       -0.02920
C         -3.03200       -1.09907       -0.02587
C         -3.78647        0.12477       -0.03488
N         -4.84994        0.43469       -0.03704
H         -5.22952        1.38368       -0.06121
H         -5.67229       -0.17321       -0.02236
N         -2.89550        1.19039       -0.04221
C         -1.68199        0.61747       -0.03914
C         -0.41407        1.30859       -0.04127
C          0.81317        0.53221       -0.01848
C          1.98363        1.25923       -0.00028
H          1.86286        2.34288       -0.00477
H         -0.49883        2.39029       -0.13927
H         -3.48608       -2.08603       -0.01787
H          3.52225       -2.57201        0.02687
H          4.79525       -0.75087        0.04602
H          4.04499        2.55959        0.08790
H          5.08536        1.31329        0.04361
