34
Coordinates from ORCA-job ./opt_b97-3c_parallel
N         -5.22406       -0.43557       -0.19113
C         -3.86534       -0.32742       -0.07985
C         -3.14911       -1.51030       -0.12928
C         -1.78012       -1.70596       -0.04251
C         -0.72535       -0.78423        0.06432
C          0.57101       -1.34191        0.10893
N          0.86057       -2.68136        0.16040
H          1.80946       -2.94859        0.39887
H          0.11711       -3.32338        0.40861
C          1.81755       -0.61233        0.10061
C          1.69591        0.81194        0.08672
C          2.98409        1.42393       -0.06196
N          3.28544        2.70426       -0.42729
H          2.53336        3.29922       -0.75719
H          4.22349        2.90275       -0.75701
C          3.87945        0.31327        0.09039
C          3.21230       -0.95685        0.01845
N          4.02429       -2.05199       -0.07000
H          5.00533       -1.91438       -0.28546
H          3.60651       -2.94646       -0.30122
H          4.94981        0.42615        0.23135
C          0.36529        1.34490        0.17196
C         -0.83942        0.62082        0.13454
C         -2.03197        1.38252        0.18753
N         -1.95199        2.74274        0.35917
H         -2.80131        3.24471        0.59322
H         -1.07643        3.13371        0.68691
C         -3.35467        0.95090        0.08734
H         -4.10946        1.73595        0.13525
H          0.44711        2.42647        0.22651
H         -1.52621       -2.75922       -0.10239
H         -3.73372       -2.42122       -0.24530
H         -5.61475       -1.31463       -0.51192
H         -5.76545        0.40760       -0.34706
