25
Coordinates from ORCA-job ./opt_b97-3c_parallel
N          2.88452        3.05029       -0.07735
C          2.47644        1.98183       -0.06514
C          1.97502        0.61360       -0.04258
C          2.97279       -0.40083       -0.01421
C          2.77649       -1.78483        0.00125
C          1.53929       -2.49835       -0.01810
N          0.60006       -1.94902       -0.00423
C         -0.09590       -0.80616       -0.00668
C         -1.50738       -0.87776        0.01888
C         -2.21487       -2.13899        0.06630
N         -2.76528       -3.14023        0.11316
C         -2.22845        0.31081       -0.00228
C         -1.53379        1.46869       -0.04560
N         -0.19993        1.59706       -0.06123
C          0.55712        0.45697       -0.03921
C         -2.52039        2.46912       -0.05895
C         -3.70898        1.64648       -0.01788
N         -3.56476        0.52569        0.01224
H         -4.75118        1.94255       -0.01307
H         -2.44409        3.55087       -0.09629
H          1.34397       -3.50564       -0.36675
H          3.61613       -2.47689        0.02191
N          4.30155       -0.05053        0.00026
H          4.99452       -0.76102        0.20771
H          4.54900        0.92050        0.16205
