26
Coordinates from ORCA-job ./opt_b97-3c_parallel
N          1.75666        3.26767        0.02619
C          1.64851        2.12903       -0.00219
C          1.53046        0.67618       -0.02411
C          2.77817        0.00615       -0.04701
C          3.03225       -1.35979       -0.03865
C          2.14199       -2.41173       -0.00434
C          0.76230       -2.36953        0.01196
C         -0.10645       -1.27690        0.00116
C         -1.45336       -1.68757        0.00986
C         -2.45018       -0.73673        0.00368
C         -2.19764        0.58409       -0.00949
N         -3.33311        1.31610       -0.01372
C         -4.19113        0.58015       -0.00445
C         -3.85325       -0.82571        0.00765
H         -4.51843       -1.68268        0.01636
H         -5.16577        1.05369       -0.00650
C         -0.88243        1.02272       -0.01797
C          0.21789        0.11494       -0.01309
H         -0.76675        2.10174       -0.03267
H         -1.73392       -2.73865        0.02026
H          0.30831       -3.35879        0.03339
H          2.58507       -3.40499        0.00550
H          4.07853       -1.66209       -0.05827
N          3.94263        0.73990       -0.08243
H          3.88990        1.74603        0.04101
H          4.82258        0.27880        0.11897
