30
Coordinates from ORCA-job ./opt_b97-3c_parallel
N          2.78210        3.50415       -0.18362
C          2.48206        2.40258       -0.12606
C          2.08934        1.01052       -0.04064
C          3.20911        0.09226       -0.00676
N          3.40658       -0.99275       -0.06455
C          2.63677       -1.78276       -0.09789
N          3.40792       -2.89436       -0.29235
H          2.98503       -3.81512       -0.25425
H          4.41698       -2.82793       -0.22139
C          1.20494       -1.85363        0.00287
C          0.32727       -0.76450        0.03023
N         -0.98346       -1.10858        0.07947
C         -1.92484       -0.14482        0.09025
C         -1.61037        1.19465        0.05168
C         -2.69467        2.12874        0.06702
C         -3.50134        0.93080        0.04846
N         -4.82138        1.26607       -0.08550
H         -5.10096        2.23290        0.03666
H         -5.52169        0.54371        0.04905
C         -3.31346       -0.50090        0.13568
C         -3.97259       -1.74046        0.40480
N         -4.97348       -2.29322        0.42698
H         -2.81378        2.97222       -0.60616
C         -0.27476        1.57701        0.00177
C          0.73805        0.59740       -0.00511
H         -0.04926        2.63984       -0.02451
H          0.81818       -2.87064        0.03777
N          4.50193        0.43078        0.30471
H          5.24043       -0.25518        0.19354
H          4.76686        1.40936        0.33505
