31
Coordinates from ORCA-job ./opt_b97-3c_parallel
N         -4.72868       -1.88445        0.18449
C         -3.92412       -1.14113        0.51123
C         -2.92766       -0.20084        0.09581
C         -3.14844        1.22213       -0.03992
N         -4.39390        1.74074       -0.27195
H         -5.19616        1.12401       -0.19196
H         -4.54376        2.73598       -0.14930
C         -2.30995        2.39507        0.02351
C         -1.22045        1.46732        0.02917
C         -1.52418        0.12274        0.05999
C         -0.49711       -0.83427        0.04806
C         -0.88133       -2.22990        0.07259
N         -1.17448       -3.33399        0.10042
C          0.86283       -0.42880        0.00600
C          1.87762       -1.41974       -0.02224
C          3.27493       -1.28657       -0.09233
N          4.00060       -2.44512       -0.13778
H          4.98551       -2.39721       -0.37402
H          3.51405       -3.32164       -0.29246
C          4.00772       -0.09980       -0.12430
C          3.44940        1.21458       -0.05073
N          2.38445        1.45121       -0.04063
C          1.14108        0.95566       -0.01534
C          0.10092        1.88487       -0.00638
H          0.32575        2.94966       -0.02865
N          4.19686        2.33546        0.16010
H          5.18502        2.24940        0.36874
H          3.73507        3.20837        0.38816
H          5.09378       -0.12438       -0.18849
H          1.56298       -2.45845       -0.00072
H         -2.39092        3.26539       -0.62222
