26
Coordinates from ORCA-job ./opt_b97-3c_parallel
N         -3.41079       -2.87984       -0.25221
C         -2.99520       -1.82941       -0.07981
C         -2.51387       -0.49685        0.12615
C         -1.14360       -0.11742        0.00478
C         -1.07570        1.25858        0.01744
C         -2.48391        1.70387        0.16104
C         -3.28077        0.63323        0.21659
N         -4.61712        0.70845        0.33454
H         -5.19487       -0.09434        0.09098
H         -5.10960        1.55026        0.04244
H         -2.88183        2.71465        0.21154
N          0.12110        1.87326       -0.10368
C          1.22872        1.10041       -0.24770
N          2.44509        1.66558       -0.38089
C          3.48296        1.30517       -0.49467
C          4.08481        0.22017        0.08103
C          3.47956       -0.97070        0.09537
N          4.00821       -2.07873        0.63816
H          3.63036       -2.99456        0.40247
H          5.01818       -2.17018        0.73091
C          2.25610       -1.15894       -0.49419
C          1.10981       -0.30935       -0.26087
N         -0.08377       -0.93786       -0.13598
H          2.16262       -1.96252       -1.21867
H          5.06371        0.33909        0.54031
H          3.87121        2.32018       -0.32274
