23
Coordinates from ORCA-job ./opt_b97-3c_parallel
N          3.15646        2.05206        0.10445
C          2.52537        1.15177        0.09821
N          3.29679        0.00751        0.00494
C          2.53430       -1.14423       -0.08326
N          3.15793       -2.05243       -0.09842
H          2.68525       -2.80303        0.39800
H          3.91783       -1.73791        0.50175
N          1.26796       -1.40020       -0.17245
C          0.16440       -0.69841       -0.11282
C         -1.04664       -1.44905       -0.30912
C         -2.26441       -0.70045       -0.16681
N         -3.54120       -1.13979       -0.28623
C         -4.12117        0.04960       -0.02590
N         -3.47599        1.16153        0.24030
C         -2.28106        0.68021        0.13711
C         -1.06204        1.42849        0.29112
C          0.15787        0.68393        0.11813
N          1.25599        1.39273        0.19600
H         -1.08917        2.48657        0.53989
H         -5.22152        0.05930       -0.04107
H         -1.06961       -2.50539       -0.55992
H          2.67425        2.79820       -0.39083
H          3.92123        1.74900       -0.49492
