24
Coordinates from ORCA-job ./opt_b97-3c_parallel
N          3.44158        2.75466       -0.02585
C          3.02141        1.69210        0.00197
C          2.45005        0.38177        0.04358
C          1.04969        0.15841        0.04258
C          0.86041       -1.24277        0.09773
C          2.05051       -1.91301        0.12737
C          2.97804       -0.89288        0.08953
N          4.02802       -1.23428        0.10744
H          4.69242       -0.46301        0.17194
H          4.58056       -2.06947       -0.08541
H          2.18380       -2.82761       -0.44990
N         -0.44594       -1.71813        0.10991
C         -1.50225       -0.81105        0.04699
N         -2.74500       -1.43897        0.05831
C         -3.86003       -0.63391       -0.05786
C         -4.67124        0.45044       -0.19573
C         -3.55021        1.22069       -0.15572
N         -2.23286        1.62519       -0.09910
C         -1.25936        0.63316       -0.02115
C          0.04008        1.08633       -0.01066
H          0.26019        2.14981       -0.05515
H         -3.95208        2.24453       -0.21688
H         -5.49889        0.62665        0.48779
H         -4.58813       -1.45781        0.00104
