30
Coordinates from ORCA-job ./opt_b97-3c_parallel
N         -1.73892       -2.82815        0.47967
C         -1.67859       -1.51511        0.09430
C         -2.93432       -0.97963       -0.21949
C         -3.15828        0.34687       -0.73011
N         -2.70104        1.29879       -0.40300
C         -1.68457        1.38697        0.01909
N         -1.95549        2.24951        1.04750
H         -2.81802        2.78163        1.03879
H         -1.19153        2.59130        1.61984
C         -0.45067        0.63475       -0.07519
C          0.74720        1.36326       -0.21092
N          0.76313        2.72646       -0.34951
H          1.61967        3.17363       -0.65575
H         -0.11504        3.19884       -0.53810
C          1.94672        0.66451       -0.19835
C          1.97742       -0.67393       -0.06822
C          3.34085       -1.09527       -0.10904
N          3.40483        0.02944       -0.21780
C          3.28295        1.15053       -0.31435
H          3.62497        2.16459       -0.47958
H          3.79473       -1.96702        0.34590
C          0.81746       -1.44318        0.03323
N          0.99658       -2.80201        0.06416
H          0.20184       -3.38694       -0.16917
H          1.91898       -3.16453       -0.14780
C         -0.45023       -0.78977        0.02009
H         -4.06909        0.76725       -1.13985
H         -3.84104       -1.57597       -0.14199
H         -2.64833       -3.22814        0.68134
H         -0.93826       -3.21405        0.96876
