26
Coordinates from ORCA-job ./opt_b97-3c_parallel
N         -4.21865       -1.73272        0.04194
C         -3.26378       -0.75397        0.03867
C         -3.73896        0.55074        0.02892
C         -3.01109        1.72875        0.01287
C         -1.63507        1.90552        0.00045
C         -0.60114        0.96909        0.00753
N          0.63191        1.54682       -0.01089
C          1.69277        0.72732       -0.00402
C          1.66063       -0.62292        0.01864
N          2.89779       -1.16876        0.01408
C          3.61553       -0.29415       -0.01064
N          4.96750       -0.47512       -0.03058
H          5.57989        0.31593       -0.19596
H          5.34836       -1.40786       -0.14049
C          3.06063        1.04194       -0.02556
H          3.57625        1.99623       -0.04997
C          0.41856       -1.23969        0.03878
C         -0.74675       -0.44575        0.03138
C         -1.93725       -1.18160        0.04450
H         -1.81859       -2.26430        0.06011
H          0.36609       -2.32633        0.05680
H         -1.32714        2.95012       -0.01681
H         -3.60002        2.64283        0.00594
H         -4.82014        0.67675        0.03272
H         -3.93881       -2.68704       -0.15560
H         -5.17988       -1.47151       -0.14868
