33
Coordinates from ORCA-job ./opt_b97-3c_parallel
N         -1.96074       -3.02343        0.31501
C         -2.12140       -1.68141        0.06555
C         -3.45830       -1.38721       -0.16233
C         -4.05666       -0.16580       -0.36046
C         -3.48128        1.07772       -0.23370
C         -2.15612        1.43925        0.00201
N         -2.10797        2.78812        0.24483
H         -1.28204        3.15259        0.70749
H         -2.98169        3.27724        0.40188
C         -0.98051        0.62370        0.01775
C          0.30953        1.26541        0.01999
N          0.54701        2.61008       -0.12614
H         -0.20322        3.18131       -0.49943
H          1.49646        2.89814       -0.33535
C          1.47297        0.50648        0.07708
C          1.44338       -0.82486        0.06697
C          2.77189       -1.33577       -0.00873
N          2.91622       -0.21328        0.04016
C          2.84269        0.91569        0.07925
N          3.78499        1.89602        0.18704
H          4.75034        1.63314        0.34902
H          3.49680        2.82268        0.47991
N          3.40692       -2.52380       -0.21528
H          2.85667       -3.33733       -0.46406
H          4.38009       -2.51466       -0.49858
C          0.24790       -1.50668        0.04707
C         -0.99252       -0.81855        0.04415
H          0.33124       -2.58811        0.00471
H         -4.20296        1.89063       -0.31238
H         -5.12729       -0.18200       -0.54969
H         -4.14957       -2.22876       -0.19135
H         -1.09454       -3.32462        0.74734
H         -2.79035       -3.56875        0.52136
