28
Coordinates from ORCA-job ./opt_b97-3c_parallel
N         -5.50418       -1.47938        0.00803
C         -4.40033       -1.18380        0.01379
C         -3.00470       -0.77097        0.00657
C         -2.01659       -1.83087        0.00987
C         -0.65375       -1.73760       -0.00894
C          0.19591       -0.67711        0.00481
N          1.52943       -1.12420        0.00818
C          2.49590       -0.13267        0.00842
C          2.20886        1.24110        0.00603
N          3.46756        1.82117        0.00367
C          4.49313        0.97046        0.00407
C          3.90378       -0.26126        0.00661
C          4.57837       -1.51975        0.00484
N          5.14744       -2.50965        0.00265
H          5.54074        1.30911        0.00203
N          0.95470        1.54998        0.00625
C         -0.08469        0.74988        0.00210
C         -1.38221        1.29570       -0.00634
C         -1.38305        2.75368       -0.01518
N         -1.21261        3.88466       -0.00067
C         -2.69049        0.60355       -0.00431
N         -3.56254        1.30516       -0.00822
H         -3.60655        2.32383       -0.00149
H         -4.53241        0.98883       -0.00327
H         -0.11486       -2.69655       -0.03800
N         -2.29243       -2.90897        0.02022
H         -1.85008       -3.82665        0.00621
H         -3.29728       -3.08104        0.00639
