30
Coordinates from ORCA-job ./opt_b97-3c_parallel
N          3.97591        1.84159       -0.34060
C          3.18621        0.73902       -0.20644
N          3.15860       -0.39001       -0.13183
C          2.94592       -1.50129       -0.06755
C          1.64775       -0.90909       -0.03459
C          1.80076        0.42384       -0.12061
C          0.70863        1.27254       -0.13540
C         -0.57368        0.71854       -0.04995
C         -1.66541        1.66153       -0.00024
N         -2.69716        1.73367       -0.38371
C         -3.30706        0.84843       -0.63832
C         -3.26390       -0.51416       -0.17953
C         -2.09382       -1.23485        0.09009
N         -2.33579       -2.53581        0.44339
H         -3.28935       -2.80378        0.65950
H         -1.59164       -3.04250        0.91056
C         -0.77545       -0.69172        0.02248
C          0.39061       -1.51454        0.02836
N          0.37825       -2.88517        0.01522
H         -0.48764       -3.34292       -0.24815
H          1.24247       -3.36474       -0.20902
H         -4.24568       -0.97657       -0.10387
H         -4.14707        1.39530       -1.05029
N         -1.67654        2.75449        0.82308
H         -0.82924        3.03111        1.30557
H         -2.43325        3.42606        0.75855
H          0.85453        2.34804       -0.20161
H          3.25584       -2.47730        0.28497
H          4.96359        1.72642       -0.53736
H          3.55060        2.73796       -0.54831
