29
Coordinates from ORCA-job ./opt_b97-3c_parallel
N         -2.23025       -3.63574       -0.00250
C         -2.12312       -2.49792       -0.00221
C         -1.96721       -1.05436       -0.00127
C         -3.22066       -0.32762       -0.00229
N         -3.53162        0.73679       -0.00283
C         -2.94614        1.67264       -0.00245
N         -3.82382        2.72042       -0.00348
H         -4.82516        2.56809       -0.00309
H         -3.47555        3.67439       -0.00277
C         -1.53171        1.92406       -0.00190
C         -0.50139        0.98075       -0.00100
N          0.74014        1.53914       -0.00178
C          1.81106        0.73109       -0.00070
C          1.69363       -0.63019        0.00063
C          2.95757       -1.15073        0.00135
C          3.31801       -2.54364        0.00099
N          3.59097       -3.65223        0.00005
C          3.83394       -0.07670        0.00089
C          3.17428        1.22294       -0.00064
C          3.82584        2.49309        0.00070
N          4.21364        3.56814        0.00235
H          4.90861       -0.24541        0.00079
C          0.45359       -1.24820        0.00058
C         -0.69708       -0.43355        0.00032
H          0.40886       -2.33409        0.00096
H         -1.29693        2.98742       -0.00235
N         -4.45883       -0.91752        0.00148
H         -5.30497       -0.36126       -0.00244
H         -4.53970       -1.92992       -0.00044
