29
Coordinates from ORCA-job ./opt_b97-3c_parallel
N         -3.28041       -2.17932       -0.13117
C         -2.62192       -1.29956       -0.01565
N         -2.75856       -0.00182        0.07191
C         -2.60382        1.29656        0.02813
N         -3.25922        2.18335       -0.05758
H         -2.71753        2.88281       -0.56853
H         -4.07162        2.67751        0.31361
C         -1.37199        0.69688        0.10024
C         -1.38204       -0.71923        0.08593
C         -0.13132       -1.43490       -0.03795
N         -0.11626       -2.79861        0.10292
H          0.79486       -3.25083        0.12104
H         -0.83165       -3.23716        0.67210
C          1.05131       -0.72624       -0.29599
C          2.28000       -1.45553       -0.46828
N          3.45195       -1.21867        0.13354
C          3.88601       -0.01102        0.53852
N          3.47454        1.23799        0.09051
C          2.27488        1.39696       -0.57668
C          1.05737        0.67256       -0.31184
C         -0.11419        1.39550       -0.04196
N         -0.08130        2.76197        0.07179
H         -0.77597        3.21635        0.65381
H          0.83703        3.19941        0.06887
H          2.70065        2.41151       -0.61142
H          4.86972        0.09772        1.02153
H          2.82929       -2.40475       -0.37211
H         -4.13898       -2.68133        0.09887
H         -2.70118       -2.84249       -0.64923
