31
Coordinates from ORCA-job ./opt_b97-3c_parallel
N          5.53826        0.49454       -0.17329
C          4.39761        0.44794       -0.10463
C          2.93946        0.38402       -0.03248
C          2.28925        1.62568        0.04105
C          0.92586        1.87659        0.07689
C         -0.17375        1.02107        0.05157
C         -1.38919        1.73541        0.06031
C         -2.58141        1.04552        0.03837
C         -2.64239       -0.29783        0.00863
N         -3.91419       -0.75307       -0.02062
C         -4.56997        0.16514       -0.01375
N         -5.92824        0.05417       -0.05126
H         -6.51497        0.87531        0.04125
H         -6.36145       -0.86140       -0.00197
C         -3.92550        1.45888        0.02633
H         -4.37513        2.44644        0.03315
C         -1.46492       -1.02783        0.00622
C         -0.18124       -0.40301        0.02872
C          0.96706       -1.24759        0.02501
C          0.71747       -2.68589        0.08954
N          0.53717       -3.81368        0.15087
C          2.34546       -0.89895       -0.03090
N          3.24450       -1.95384       -0.09591
H          4.23708       -1.77153        0.00942
H          2.91127       -2.90343        0.03416
H         -1.61032       -2.10271       -0.02645
H         -1.41939        2.82287        0.07860
H          0.68297        2.93816        0.12132
N          3.04280        2.77744        0.07447
H          2.58750        3.67249       -0.06758
H          4.04242        2.71586       -0.09095
