20
Coordinates from ORCA-job ./opt_b97-3c_parallel
N          3.35229        1.48332        0.11192
C          2.78130        0.53929        0.06054
N          1.68185        1.30549        0.13153
C          0.48699        0.66377        0.04598
N         -0.63333        1.41363        0.19301
C         -1.83554        0.80418        0.09792
N         -3.02834        1.37381        0.21728
C         -3.82381        0.30957        0.02801
N         -3.24515       -0.93254       -0.20920
C         -1.96582       -0.54905       -0.15012
N         -0.88105       -1.33582       -0.30552
C          0.31940       -0.72413       -0.20386
N          1.26044       -1.61140       -0.39340
C          2.53386       -1.74426       -0.21076
C          3.37374       -0.68547       -0.05028
H          4.39295       -0.84735        0.29773
H          2.60332       -2.59179        0.48735
H         -4.91136        0.47100        0.06924
H          3.19691        2.46002       -0.13083
H          4.21122        1.20198       -0.35607
