25
Coordinates from ORCA-job ./opt_b97-3c_parallel
N         -1.84770       -3.00742        0.80401
C         -1.77662       -1.90131        0.52683
C         -1.62894       -0.50474        0.18530
C         -2.86286        0.13668        0.13810
C         -3.15318        1.51898       -0.17615
C         -2.24052        2.51791       -0.38450
C         -0.81341        2.46263       -0.36141
C          0.03890        1.38384       -0.23344
N          1.32820        1.81579       -0.24786
C          2.35553        0.91511        0.00590
N          3.70745        1.05836        0.20386
C          4.24224       -0.18815        0.46938
N          3.21420       -1.11253        0.42590
C          2.03381       -0.46510        0.10796
C          0.75133       -0.85517       -0.15587
C          0.83884       -1.45134       -1.09480
N          0.76488       -2.09450       -2.03671
C         -0.30068        0.03565       -0.07515
H          5.31470       -0.34196        0.66838
H         -0.37711        3.45115       -0.49449
H         -2.63375        3.51586       -0.55718
H         -4.18972        1.87149       -0.22652
N         -3.89810       -0.24365        0.28532
H         -4.84615        0.12366        0.21274
H         -3.99251       -1.25810        0.32777
