20
Coordinates from ORCA-job ./opt_b97-3c_parallel
C          3.86651       -0.00535        0.00151
C          3.06230       -1.10111       -0.01752
C          1.77998       -0.62543       -0.00693
C          1.79380        0.74562        0.02009
C          3.11390        1.08788        0.02414
H          3.49567        2.10662        0.04062
N          0.59434        1.44191        0.03605
C         -0.59773        0.72626        0.02063
N         -1.67019        1.61308        0.03868
C         -2.95017        1.11348        0.02323
N         -3.77779        0.02705       -0.00551
C         -2.98124       -1.08279       -0.02825
N         -1.70834       -1.60016       -0.03464
C         -0.61457       -0.73891       -0.01149
C          0.65559       -1.41155       -0.02291
H          0.69403       -2.49733       -0.04553
H         -3.67254       -1.94035       -0.05260
H         -3.75379        1.86627        0.03898
H          3.37937       -2.13957       -0.03868
H          4.95436       -0.02313       -0.00327
