32
Coordinates from ORCA-job ./opt_b97-3c_parallel
N          6.02521        0.78508       -0.05925
C          4.89343        0.62175       -0.07117
C          3.45073        0.41431       -0.06743
C          2.64794        1.56636       -0.06917
N          3.25602        2.80048       -0.08233
H          4.25644        2.85481        0.08030
H          2.69677        3.62623        0.10145
C          1.25792        1.64300       -0.05997
C          0.26389        0.66443       -0.02203
N         -0.97642        1.21395       -0.00365
C         -2.06773        0.43469        0.05377
C         -1.98751       -0.93444        0.09840
C         -3.23874       -1.63523        0.18349
C         -3.85003       -0.33176        0.08773
N         -5.20613       -0.47367       -0.02552
H         -5.62818       -1.37829        0.15382
H         -5.79151        0.35278        0.04455
C         -3.37147        1.03231        0.07519
C         -3.83210        2.38531        0.08580
N         -4.73053        3.09273        0.05756
H         -3.52604       -2.50659       -0.39731
C         -0.73061       -1.54413        0.06467
C         -0.70846       -2.99259        0.10177
N         -0.69980       -4.13549        0.11960
C          0.44273       -0.73886        0.00231
C          1.68653       -1.39603       -0.03155
C          2.99810       -0.91714       -0.06252
N          3.93525       -1.92480       -0.08314
H          4.91303       -1.68956        0.05499
H          3.64146       -2.87883        0.09514
H          1.65866       -2.48116       -0.03088
H          0.87455        2.66476       -0.07463
