26
Coordinates from ORCA-job ./opt_b97-3c_parallel
N          1.25699        3.66003        0.34054
C          1.19556        2.52346        0.22841
C          1.12720        1.08420        0.06611
C          2.41341        0.43061       -0.06106
N          2.82921       -0.59281       -0.02206
C          2.25342       -1.53485       -0.02263
N          3.19153       -2.45394        0.35361
H          2.94703       -3.43385        0.44142
H          4.15686       -2.17691        0.49271
C          0.87638       -1.89346       -0.22255
C         -0.20677       -1.01045       -0.14701
C         -1.47333       -1.61191       -0.23252
C         -2.59869       -0.81185       -0.11285
C         -2.41712        0.51638        0.07058
C         -3.72049        1.03007        0.16844
C         -4.47615       -0.19345        0.00993
N         -3.90380       -1.15795       -0.13868
H         -5.54873       -0.34495        0.01603
H         -4.08421        2.03925        0.33026
N         -1.24138        1.16070        0.13840
C         -0.10916        0.40469        0.02422
H         -1.58272       -2.68544       -0.36944
H          0.71765       -2.96074       -0.36377
N          3.59137        1.06583       -0.36519
H          3.62365        2.07932       -0.35677
H          4.46803        0.56628       -0.26677
