25
Coordinates from ORCA-job ./opt_b97-3c_parallel
N         -2.33080       -2.12871       -0.27456
C         -1.78131       -1.17621       -0.17400
N         -3.04296       -0.71454       -0.14703
C         -3.36224        0.56289        0.04084
N         -2.83358        1.70976        0.25782
C         -1.58650        1.98000        0.09462
C         -0.49726        1.04925       -0.00841
C          0.80179        1.67339       -0.05051
C          2.04209        0.94697       -0.04772
C          1.82664       -0.45016       -0.05087
C          3.17181       -0.90565       -0.01807
N          3.92030        0.20914       -0.00221
C          3.32734        1.39678       -0.02070
H          3.85545        2.36209       -0.01177
H          3.65884       -1.89180        0.00508
C          0.63518       -1.12300       -0.06017
N          0.77323       -2.40067        0.34178
H          0.00735       -2.86452        0.82832
H          1.64363       -2.70769        0.76937
C         -0.54387       -0.41243       -0.05943
H          0.97481        2.65564       -0.48478
H         -1.65295        3.07739        0.14326
H         -4.45657        0.67263        0.05192
H         -1.39935       -2.22652       -0.67276
H         -2.98113       -2.54553       -0.93671
