25
Coordinates from ORCA-job ./opt_b97-3c_parallel
N         -4.92300       -0.09631        0.16418
C         -3.82386        0.06593        0.09974
N         -3.21430       -1.09377        0.08308
C         -1.98935       -0.68148        0.07124
C         -1.95778        0.73669        0.07599
C         -3.19969        1.29834        0.08244
H         -3.47544        2.05854       -0.64902
N         -0.78450        1.41737        0.08417
C          0.42889        0.72445        0.06379
N          1.51134        1.61214        0.08193
C          2.82190        1.16323        0.04953
N          3.52598        2.01964        0.08215
H          4.54624        1.95026        0.14615
H          3.35605        3.02916        0.08504
N          3.62997        0.05024       -0.01186
C          2.86019       -1.08946       -0.04149
N          3.47223       -2.00984       -0.11026
H          4.45792       -2.00544       -0.38835
H          3.27056       -3.00210        0.04205
N          1.56892       -1.58662       -0.02407
C          0.45801       -0.73504        0.03002
C         -0.81654       -1.41262        0.04677
H         -0.82866       -2.50005        0.03458
H         -5.65750        0.45566       -0.29003
H         -5.44559       -0.80668        0.68587
