32
Coordinates from ORCA-job ./opt_b97-3c_parallel
N          2.40201        3.60973        0.18277
C          2.30852        2.47237        0.11542
C          2.18039        1.03282        0.01286
C          3.45356        0.34656       -0.06800
N          3.85193       -0.68049        0.01338
C          3.24981       -1.60473        0.04547
N          4.20380       -2.52705        0.37026
H          5.15585       -2.23233        0.55688
H          3.94387       -3.48598        0.57166
C          1.86292       -1.95027       -0.10582
C          0.79780       -1.04105       -0.09044
C         -0.47667       -1.61667       -0.14761
C         -1.62152       -0.82765       -0.09581
C         -1.50615        0.54198        0.01370
C         -2.71700        1.30832        0.08904
C         -2.99687        2.64123        0.52667
N         -3.37047        3.71361        0.40188
C         -3.31991       -0.00211        0.00848
N         -4.68053        0.10386        0.12482
H         -5.10770        1.02273        0.07514
H         -5.25635       -0.70704       -0.07603
C         -2.94217       -1.38849       -0.14162
C         -3.46203       -2.67005       -0.50492
N         -3.99226       -3.67728       -0.40534
C         -0.24726        1.13825        0.04978
C          0.93149        0.36964       -0.00725
H         -0.20880        2.22175        0.12203
H         -0.58148       -2.69766       -0.21906
H          1.68473       -3.02157       -0.17878
N          4.64286        0.92068       -0.43913
H          5.50371        0.39338       -0.34382
H          4.71194        1.93139       -0.49210
