31
Coordinates from ORCA-job ./opt_b97-3c_parallel
N         -3.49648       -2.39869        0.10882
C         -2.79835       -1.22901        0.02415
N         -2.81758       -0.10034       -0.05909
C         -2.63590        1.01738       -0.09869
N         -3.39021        2.15216       -0.17086
H         -4.39959        2.08833       -0.11039
H         -2.95654        3.05094        0.00813
C         -1.31704        0.47326       -0.01842
C         -1.42376       -0.85783        0.04192
C         -0.29993       -1.65870        0.01090
C          0.98143       -1.07834       -0.02425
C          1.97569       -2.05997       -0.12332
C          3.34840       -1.94484       -0.24474
C          4.11089       -0.79884       -0.18646
C          3.67662        0.49260        0.04275
C          2.38451        1.01043        0.15515
N          2.44661        2.33396        0.50923
H          1.60323        2.75640        0.88356
H          3.33250        2.69785        0.84071
C          1.12924        0.34520        0.02010
C         -0.08012        1.11445       -0.05565
N         -0.14319        2.46796       -0.27312
H         -1.03026        2.85030       -0.58086
H          0.69881        2.92356       -0.60909
H          4.49291        1.20772        0.13959
H          5.18601       -0.93344       -0.27926
H          3.89638       -2.87488       -0.37838
H          1.64051       -3.09476       -0.15924
H         -0.43911       -2.73751       -0.00146
H         -4.50512       -2.39977        0.00786
H         -3.00748       -3.28596        0.13804
