22
Coordinates from ORCA-job ./opt_b97-3c_parallel
N         -3.23133       -1.52031        0.07729
C         -2.77072       -0.51790        0.00362
N         -1.57987       -1.13345        0.03655
C         -0.40435       -0.46821        0.04159
N          0.62135       -1.26618        0.03980
C          1.85211       -0.85651        0.05907
C          3.02568       -1.55292        0.04776
C          3.94696       -0.52909        0.10570
N          3.45050        0.76511        0.13893
C          2.11399        0.53105        0.10808
C          1.07141        1.51813        0.12299
C         -0.27135        0.98994        0.08066
N         -1.28716        1.93903        0.09332
C         -2.58417        1.48111        0.03281
C         -3.59011        0.57002       -0.04413
H         -4.36195        0.66387       -0.80698
H         -3.03992        2.48316        0.06561
H          1.28255        2.58309        0.16153
H          5.04580       -0.46307        0.12982
H          3.17377       -2.39055       -0.63037
H         -3.11255       -2.49711        0.34405
H         -4.23715       -1.35322        0.07868
