30
Coordinates from ORCA-job ./opt_b97-3c_parallel
N          5.03073        0.53166        0.10646
C          3.71903        0.18041       -0.03666
N          3.26402        1.18467       -0.04951
C          2.17272        1.35069       -0.04876
C          0.90979        0.66090       -0.01593
C         -0.24106        1.45605        0.00830
C         -1.47883        0.82855        0.02708
C         -1.58740       -0.51447        0.02748
C         -2.97464       -0.84729        0.02729
N         -3.81593       -1.91741       -0.07195
H         -3.43204       -2.81578       -0.34156
H         -4.79988       -1.75577       -0.25137
N         -2.97406        0.28551        0.05967
C         -2.78169        1.40311        0.05555
N         -3.39744        2.61938        0.08257
H         -4.39568        2.67162        0.24960
H         -2.84571        3.45994        0.21054
C         -0.46614       -1.34697        0.02201
N         -0.65505       -2.70358        0.06660
H         -1.57802       -3.03959        0.31875
H          0.13549       -3.28668        0.31515
C          0.81839       -0.75547       -0.01221
C          1.95211       -1.59593       -0.05312
C          3.28808       -1.19091       -0.07944
H          4.07404       -1.94094       -0.12421
H          1.80762       -2.67168       -0.07637
H         -0.17468        2.54157        0.00796
H          2.36509        2.41527        0.02420
H          5.30423        1.50573        0.04196
H          5.75412       -0.17633        0.05511
