30
Coordinates from ORCA-job ./opt_b97-3c_parallel
N         -5.63791        0.16674       -0.34193
C         -4.51294       -0.00367       -0.22521
C         -3.08907       -0.23329       -0.09050
C         -2.27777        0.95217       -0.05061
N         -1.19177        1.06154       -0.03946
C         -0.04458        0.36444       -0.00723
C         -0.03525       -1.04880        0.02440
N          1.13696       -1.73400        0.04939
C          2.30070       -1.05638        0.04917
C          3.54235       -1.76771        0.05268
C          4.18222       -0.47273        0.03859
N          5.53828       -0.61383       -0.05660
H          5.94924       -1.53241        0.07044
H          6.13022        0.20000        0.07481
C          3.68828        0.88563        0.04967
C          2.36956        0.31820        0.03278
C          1.18408        1.05374        0.00010
C          1.23972        2.49932       -0.03189
N          1.29500        3.64058       -0.06792
H          4.04937        1.68576       -0.58755
H          3.78169       -2.59650        0.71183
C         -1.18555       -1.86144        0.02310
C         -2.55095       -1.53021       -0.03554
N         -3.41233       -2.59866       -0.04816
H         -4.39330       -2.43761       -0.25297
H         -3.04011       -3.53340       -0.17474
H         -0.98123       -2.93139        0.05852
N         -2.69590        2.18812        0.36024
H         -3.68953        2.38944        0.39302
H         -2.05757        2.97429        0.30653
