29
Coordinates from ORCA-job ./opt_b97-3c_parallel
N         -5.22008       -0.00362        0.02631
C         -4.07706       -0.00059       -0.01189
C         -2.61998        0.00070       -0.04039
C         -1.98904       -1.25818       -0.04603
N         -2.76993       -2.39063       -0.04003
H         -3.76687       -2.29479        0.12373
H         -2.33627       -3.28399        0.16396
C         -0.62429       -1.54313       -0.05657
C          0.49153       -0.70545       -0.04645
C          1.71956       -1.39622       -0.03993
C          2.90580       -0.68351       -0.01454
C          2.90663        0.68475       -0.00037
C          4.21856        1.12885        0.03159
C          5.03045       -0.00238        0.03590
C          4.21644       -1.13136        0.00609
H          4.54727       -2.16712        0.00273
H          6.11721       -0.00411        0.06021
H          4.55220        2.16348        0.05234
C          1.72067        1.39893       -0.01566
C          0.49169        0.70953       -0.03821
C         -0.62516        1.54653       -0.05201
C         -1.99005        1.26024       -0.05420
N         -2.77327        2.39098       -0.06663
H         -2.34254        3.29276        0.10359
H         -3.77203        2.29777        0.08826
H         -0.39566        2.61168       -0.05823
H          1.76098        2.48633       -0.00567
H          1.75935       -2.48338       -0.04850
H         -0.39417       -2.60802       -0.06638
