28
Coordinates from ORCA-job ./opt_b97-3c_parallel
N         -2.50587       -4.14119        0.09048
C         -2.42164       -3.00195        0.06441
C         -2.26239       -1.57749        0.05056
C         -3.12974       -0.49238        0.01733
N         -4.21490       -0.70810       -0.01602
H         -4.79479       -1.54212        0.06732
H         -4.82177        0.03623       -0.35784
C         -2.38911        0.76034        0.03256
C         -3.12361        1.99214       -0.01821
N         -3.20304        2.50055       -1.03891
C         -1.06258        0.40075        0.08573
C         -0.96196       -0.99567        0.08054
C          0.30188       -1.66005        0.11998
C          1.49259       -0.84824        0.07690
N          2.71662       -1.51853       -0.04336
C          3.89747       -0.79689       -0.07572
N          4.66332       -1.57660       -0.22063
H          4.51880       -2.50155       -0.62367
H          5.64572       -1.35114       -0.37279
N          4.54922        0.41943       -0.01899
C          3.66405        1.46906        0.13520
N          2.37589        1.34975        0.17281
C          1.35404        0.54907        0.13611
C          0.12241        1.22566        0.14063
C         -0.01243        2.65733        0.18122
N         -0.07687        3.79758        0.21610
H          4.03103        2.50418        0.22122
H          0.35319       -2.61213        0.64519
