27
Coordinates from ORCA-job ./opt_b97-3c_parallel
N         -2.17063       -1.93145        0.87365
C         -1.88353       -0.90609        0.01105
N         -2.93381       -0.63551       -0.19972
C         -3.34833        0.38069       -0.33560
C         -2.86761        1.70321       -0.03884
C         -1.51938        2.02217        0.13381
C         -0.44241        1.12068        0.07430
C          0.83830        1.68227        0.14130
C          1.97373        0.88690        0.03079
C          1.89442       -0.53997       -0.20427
C          3.31951       -0.81124       -0.23900
C          4.10237        0.31307       -0.04873
C          3.26095        1.37984        0.11735
H          3.55289        2.41313        0.28899
H          5.18905        0.34315       -0.03464
H          3.78284       -1.78217       -0.39541
C          0.56300       -1.07870       -0.21429
N          0.53129       -2.42934       -0.42703
H          1.38413       -2.88605       -0.72955
H         -0.35246       -2.84658       -0.69938
C         -0.58042       -0.27874       -0.05594
H          0.95758        2.75528        0.27597
H         -1.29373        3.07535        0.28521
H         -3.62324        2.48442        0.00110
H         -4.34371        0.07535       -0.63596
H         -3.08761       -2.36327        0.85024
H         -1.40518       -2.46852        1.26443
