31
Coordinates from ORCA-job ./opt_b97-3c_parallel
N          2.98089        3.63747        0.00344
C          2.75775        2.51624        0.03576
C          2.49437        1.07731        0.07621
C          3.64297        0.29377        0.31007
C          3.75109       -1.08264        0.24623
C          2.78562       -2.00319       -0.09074
C          1.41215       -1.84366       -0.23799
C          0.84484       -3.05630       -0.79694
N          0.42305       -4.01647       -1.25200
C          0.62220       -0.67778       -0.03043
C          1.13557        0.65917       -0.03969
N          0.25512        1.69951       -0.14223
C         -1.06906        1.52051       -0.15552
C         -1.63580        0.29304        0.02979
C         -3.07320        0.27110        0.12850
C         -4.26454       -0.52230        0.14156
N         -5.28593       -0.86975        0.51906
C         -3.01698        1.69336       -0.13770
N         -4.14972        2.43493       -0.34619
H         -5.05308        2.00769       -0.16450
H         -4.09010        3.44693       -0.35676
C         -1.94011        2.65159       -0.23406
H         -1.86851        3.45576       -0.96096
C         -0.79570       -0.81904        0.13605
C         -1.43608       -2.02602        0.62108
N         -1.94936       -2.96357        1.02462
H          3.18195       -3.00929       -0.23221
H          4.74536       -1.50354        0.39204
N          4.84840        0.89959        0.58180
H          5.69776        0.34536        0.58187
H          4.92719        1.90870        0.50452
