30
Coordinates from ORCA-job ./opt_b97-3c_parallel
N         -5.60161       -0.08102        0.04216
C         -4.45923       -0.05476       -0.00508
C         -3.00233       -0.01961       -0.04368
C         -2.40354        1.25460       -0.05684
N         -3.21539        2.36507       -0.06145
H         -4.21012        2.24061        0.09786
H         -2.81012        3.27255        0.13770
C         -1.04599        1.57316       -0.06107
C          0.08954        0.76177       -0.04658
C          1.30265        1.47455       -0.02842
C          2.49339        0.77222       -0.01148
C          2.55898       -0.57759       -0.01712
N          3.83469       -1.02503       -0.00028
C          4.49041       -0.10498        0.01357
N          5.85190       -0.18862        0.03120
H          6.30031       -1.09074       -0.08363
H          6.41194        0.64516       -0.09902
C          3.83725        1.18523        0.01104
H          4.28304        2.17433        0.02636
C          1.37752       -1.30690       -0.03787
C          0.12770       -0.65139       -0.04979
C         -0.96860       -1.51598       -0.06405
C         -2.34084       -1.26289       -0.05592
N         -3.09896       -2.41078       -0.05729
H         -2.65321       -3.29553        0.15697
H         -4.09969       -2.33181        0.09394
H         -0.71346       -2.57520       -0.07682
H          1.44043       -2.39307       -0.04155
H          1.32639        2.56234       -0.02343
H         -0.84114        2.64331       -0.07118
