32
Coordinates from ORCA-job ./opt_b97-3c_parallel
N          5.44450        0.11224        0.26804
C          4.30356        0.08187        0.18904
C          2.84335        0.03741        0.07398
C          2.18922        1.28645        0.08399
N          3.01827        2.39379        0.20663
H          2.63237        3.32630        0.09877
H          4.02548        2.27710        0.16581
C          0.80492        1.55392       -0.02428
C          0.46591        2.98087       -0.10239
N          0.21913        4.09574       -0.17150
C         -0.29327        0.65140       -0.03949
N         -1.51259        1.27926       -0.04374
C         -2.67333        0.61606       -0.02703
C         -2.71418       -0.74399        0.00172
C         -4.00158       -1.37028        0.03033
C         -4.47991       -0.00720        0.01444
N         -5.84404        0.04124        0.08818
H         -6.37482       -0.81236       -0.04583
H         -6.31250        0.92758       -0.06603
C         -3.91704        1.32263       -0.02454
H         -4.20330        2.09921       -0.72713
H         -4.29508       -2.14105        0.73631
C         -1.51731       -1.43800       -0.00390
C         -0.25281       -0.77675       -0.03930
C          0.90241       -1.60771       -0.09937
C          0.67374       -3.04798       -0.21603
N          0.51152       -4.17688       -0.30320
C          2.27267       -1.24607       -0.06266
N          3.18632       -2.28833       -0.15452
H          4.17960       -2.10571       -0.05458
H          2.86326       -3.25039       -0.16990
H         -1.63758       -2.51555        0.02622
