26
Coordinates from ORCA-job ./opt_b97-3c_parallel
N         -2.12000       -2.97979       -0.66293
C         -1.89977       -1.89350       -0.38203
C         -1.65945       -0.49814       -0.05094
C         -2.86387        0.26281        0.04801
C         -3.00132        1.64838        0.18472
C         -1.99519        2.65711        0.10305
N         -0.96813        2.31307        0.01889
C         -0.02023        1.37783       -0.03448
C          1.28756        1.86958       -0.13227
C          2.35494        0.99435       -0.13094
N          3.67404        1.27616       -0.19091
C          4.21317        0.28824       -0.10510
C          3.39842       -0.89397        0.05603
C          2.10737       -0.32538        0.01051
C          0.83413       -0.87886        0.12012
C          0.83069       -2.28127        0.47879
N          0.85904       -3.38332        0.78105
C         -0.30633       -0.01516        0.01965
H          3.72342       -1.92478        0.15507
H          5.29200        0.37960       -0.15056
H          1.47204        2.94038       -0.19458
H         -1.90032        3.56373        0.68861
H         -3.97949        2.11880        0.25887
N         -4.08488       -0.37050        0.02501
H         -4.12122       -1.34790       -0.24827
H         -4.92304        0.18698       -0.09395
