30
Coordinates from ORCA-job ./opt_b97-3c_parallel
N         -5.26114       -0.32812       -0.87924
C         -4.16261       -0.35352       -0.56055
C         -2.75766       -0.39035       -0.17019
C         -2.20170       -1.66584        0.01310
C         -0.89162       -1.98190        0.34602
C          0.26020       -1.19844        0.30163
C          1.43167       -1.97193        0.42496
C          2.67572       -1.40474        0.22902
C          2.74568       -0.10336       -0.11445
C          4.11942        0.10095       -0.35703
C          4.63434       -1.21560       -0.05740
N          3.88403       -2.00660        0.23666
H          5.65459       -1.57912       -0.08844
H          4.66850        0.98436       -0.66765
C          1.63941        0.72987       -0.21091
C          1.88980        2.02146       -0.81815
N          2.09725        3.02932       -1.31629
C          0.34565        0.20625        0.10258
C         -0.74866        1.08933        0.30603
C         -0.43406        2.39095        0.88733
N         -0.20260        3.40380        1.36424
C         -2.13054        0.83821        0.12375
N         -2.97259        1.93451        0.20023
H         -3.97487        1.78070        0.23883
H         -2.61120        2.80671        0.57263
H          1.38561       -3.04086        0.62442
H         -0.72698       -3.04431        0.52617
N         -3.00579       -2.77353       -0.12025
H         -3.92512       -2.65699       -0.53480
H         -2.56922       -3.68627       -0.19253
