30
Coordinates from ORCA-job ./opt_b97-3c_parallel
N          5.59498        0.49674        0.02063
C          4.45376        0.44019        0.00375
C          3.00309        0.32349       -0.00896
C          2.42209        1.59227       -0.01679
C          1.01579        1.95963       -0.02805
C         -0.06611        1.10593       -0.01925
C         -1.35606        1.78652       -0.01435
C         -2.52087        1.01843        0.00733
C         -2.58834       -0.40592        0.02025
N         -3.89238       -0.83450        0.04462
C         -4.69076        0.29961        0.04795
N         -5.75134       -0.01888        0.06700
H         -6.52426        0.64939        0.06927
H         -6.19759       -0.93827        0.08180
C         -3.94179        1.45227        0.02684
H         -4.41387        2.43314        0.02945
N         -1.36227       -0.83207        0.00252
C         -0.14663       -0.34346       -0.00881
C          0.94655       -1.21701       -0.01254
C          0.57073       -2.62406       -0.01352
N          0.21486       -3.71039       -0.00828
C          2.32362       -0.97082       -0.01214
N          3.06326       -1.81016       -0.01174
H          2.81054       -2.79752        0.00412
H          4.08246       -1.78182       -0.01551
H         -1.44903        2.87213       -0.02203
H          0.74263        3.02287       -0.03984
N          2.87225        2.61226       -0.01503
H          2.70514        3.61296        0.07904
H          3.88660        2.50322        0.00123
