28
Coordinates from ORCA-job ./opt_b97-3c_parallel
N         -2.13296       -3.57138       -0.18023
C         -2.02571       -2.43490       -0.11525
C         -1.89737       -0.99419       -0.01452
C         -3.15484       -0.28217        0.07422
N         -3.52581        0.75394       -0.01474
C         -2.90162        1.66290       -0.06808
N         -3.81003        2.60838       -0.45160
H         -3.53548        3.58329       -0.51067
H         -4.79849        2.38460       -0.47898
C         -1.50710        1.97043        0.09491
C         -0.45883        1.04474        0.08745
N          0.78203        1.58995        0.14512
C          1.84456        0.76338        0.09770
C          1.68738       -0.60392       -0.00790
N          0.46585       -1.17110       -0.04830
C         -0.63268       -0.36744        0.00394
C          2.85502       -1.43305       -0.07439
C          3.23242       -2.66571       -0.68889
N          3.67477       -3.70790       -0.53320
C          3.41306       -0.10720        0.01116
C          3.16980        1.30695        0.14108
C          3.90785        2.41722        0.65174
N          4.46044        3.39882        0.45881
H          4.49212       -0.24411       -0.03242
H         -1.29768        3.03549        0.17588
N         -4.35032       -0.84491        0.44300
H         -5.20702       -0.31314        0.33605
H         -4.42709       -1.85496        0.49787
