25
Coordinates from ORCA-job ./opt_b97-3c_parallel
N         -3.71505       -1.92562       -0.07152
C         -2.88680       -1.20837        0.05506
N         -3.68499       -0.07614        0.04562
C         -2.95688        1.10245        0.05002
N         -3.54966        2.03140        0.08357
H         -3.39319        3.02183        0.27106
H         -4.54918        1.87934        0.22272
N         -1.59920        1.35672       -0.01452
C         -0.42022        0.71317       -0.04848
C          0.79876        1.47987       -0.17396
C          2.02624        0.72189       -0.06656
N          3.26299        1.22750       -0.09918
C          3.90169        0.00173        0.03360
N          5.00670       -0.02823        0.05192
H          5.57756       -0.83417        0.31015
H          5.66649        0.70257       -0.21648
N          3.21101       -1.19580        0.14153
C          1.98924       -0.65757        0.06730
N          0.82786       -1.34833        0.11389
C         -0.35014       -0.68222        0.05421
C         -1.56492       -1.54861        0.12064
H         -1.28105       -2.59292        0.24510
H          0.79647        2.53023       -0.44898
H         -3.37162       -2.87830       -0.19575
H         -4.68812       -1.94142       -0.37461
