30
Coordinates from ORCA-job ./opt_b97-3c_parallel
N         -5.57754       -0.92019        0.55818
C         -4.46365       -0.72851        0.38981
C         -3.04391       -0.45033        0.14488
C         -2.63509        0.95023        0.10464
C         -1.31343        1.52399       -0.15561
C         -1.25844        2.97588       -0.33433
N         -1.17802        4.10870       -0.46439
C         -0.05571        0.87952       -0.14480
N          0.99161        1.75453       -0.25642
C          2.29227        1.34217       -0.14757
C          2.60374        0.01708        0.22576
C          4.04259        0.10856        0.21019
C          4.97680       -0.94085        0.45126
N          5.70341       -1.80372        0.62694
C          4.45800        1.44330       -0.09116
N          3.34318        2.21043       -0.30809
H          5.49411        1.81096       -0.15619
C          1.56361       -0.95150        0.12257
C          0.16454       -0.51111       -0.06208
C         -0.73883       -1.58418       -0.18176
C         -0.20652       -2.92132       -0.42787
N          0.23138       -3.97529       -0.48976
C         -2.20855       -1.54991       -0.11369
N         -2.73687       -2.53702       -0.21674
H         -3.74850       -2.66761       -0.23893
H         -2.33961       -3.47334       -0.29249
H          1.85466       -1.98403        0.26900
N         -3.46219        1.69129        0.23997
H         -3.43175        2.71011        0.24741
H         -4.44160        1.44150        0.37526
