28
Coordinates from ORCA-job ./opt_b97-3c_parallel
N         -4.36411       -1.67207       -0.61342
C         -3.62579       -0.84575       -0.33486
C         -2.67761        0.16286        0.03746
C         -3.15665        1.44301        0.15874
N         -4.42680        1.87053        0.26124
H         -5.19346        1.29022       -0.07668
H         -4.66262        2.84513        0.08442
C         -2.12112        2.28255        0.19215
C         -0.86231        1.50761        0.10430
C         -1.24211        0.18489        0.03445
C         -0.33041       -0.87885        0.03258
C         -0.80699       -2.23913       -0.04748
N         -1.15786       -3.32301       -0.12724
C          1.04827       -0.59571        0.08897
C          2.07166       -1.69972        0.16217
C          3.42854       -1.57759        0.23730
N          4.43115       -0.63221        0.12702
C          3.92849        0.64513       -0.03001
N          4.78676        1.31453       -0.20122
H          5.72062        0.95147       -0.38861
H          4.75289        2.24315       -0.61956
N          2.71828        1.10859        0.00786
C          1.46154        0.74943        0.07999
C          0.53263        1.85445        0.12134
H          0.85529        2.88557        0.23496
H          3.87875       -2.56505        0.42505
H          1.67293       -2.70949        0.18648
H         -2.26424        3.35640        0.29227
