30
Coordinates from ORCA-job ./opt_b97-3c_parallel
N         -2.23601       -3.58010       -0.27222
C         -2.11895       -2.44691       -0.17495
C         -1.96365       -1.01411       -0.03045
C         -3.22377       -0.31204        0.10013
N         -3.61027        0.71983        0.02247
C         -2.99251        1.63233       -0.03471
N         -3.88440        2.52661       -0.55476
H         -4.85721        2.26661       -0.67468
H         -3.61508        3.49117       -0.71108
C         -1.60836        1.95790        0.17330
C         -0.55162        1.03980        0.13805
C          0.72737        1.61128        0.22445
C          1.84004        0.79093        0.12816
C          1.70822       -0.56419       -0.04216
C          2.97771       -1.11916       -0.13036
C          3.29726       -2.50791       -0.33269
N          3.54708       -3.60904       -0.50685
C          3.89935       -0.08365       -0.00950
C          3.19189        1.10316        0.15334
C          3.76892        2.41330        0.30557
N          4.21449        3.45789        0.42897
H          4.98184       -0.18358       -0.04353
C          0.45937       -1.16755       -0.10271
C         -0.70380       -0.37263       -0.00222
H          0.41436       -2.24670       -0.22433
H          0.85409        2.68624        0.33960
H         -1.42307        3.02308        0.29865
N         -4.39835       -0.86520        0.54297
H         -4.47750       -1.87398        0.60919
H         -5.25659       -0.32914        0.47673
