25
Coordinates from ORCA-job ./opt_b97-3c_parallel
N          3.45048        2.97712        0.28251
C          3.10457        1.89664        0.15775
C          2.69528        0.53273        0.04928
C          1.32522        0.14126        0.03906
C          1.31122       -1.24867       -0.03765
N          2.57972       -1.79223       -0.09790
C          3.35157       -0.68126       -0.05027
N          4.41907       -0.96697       -0.09917
H          5.11816       -0.22553       -0.02080
H          4.94254       -1.80632       -0.34960
C          0.05795       -1.92216       -0.01514
C         -1.09795       -1.15597        0.04389
N         -2.24007       -1.86169        0.09187
C         -3.40987       -1.16930        0.09164
N         -4.20987       -0.07177        0.05235
C         -3.51585        1.11433       -0.01012
N         -4.35313        1.83472       -0.06853
H         -5.36274        1.74074       -0.19072
H         -4.14503        2.80613       -0.30336
C         -2.07188        1.26823        0.03243
C         -1.02477        0.33581        0.05791
N          0.19745        0.93375        0.08022
H         -1.78492        2.31720        0.01982
H         -4.10363       -2.02306        0.16139
H          0.04997       -3.00943       -0.04533
