28
Coordinates from ORCA-job ./opt_b97-3c_parallel
N         -5.77131       -0.75043       -0.16393
C         -4.63822       -0.62553       -0.09445
C         -3.21016       -0.45590       -0.00444
C         -2.61454        0.86017        0.03542
N         -1.55569        1.15620        0.14414
C         -0.31716        0.60150        0.13515
C         -0.16087       -0.80048       -0.02077
N         -1.22014       -1.64164       -0.05607
C         -2.32269       -1.59669        0.02257
N         -2.64462       -2.78922        0.60780
H         -1.98098       -3.55505        0.59771
H         -3.61724       -3.00315        0.80351
C          1.12118       -1.34749       -0.12166
C          2.20877       -0.49384       -0.03880
C          3.59212       -0.75632       -0.10703
C          4.50909       -1.83129       -0.31178
N          4.76551       -2.79718       -0.86652
C          4.04215        0.60448        0.08832
N          3.30355        1.44462        0.22941
C          2.09357        0.84591        0.15972
C          0.82445        1.42232        0.25601
C          0.70494        2.84740        0.47372
N          0.60683        3.97068        0.66268
H          5.05117        0.99888        0.11768
H          1.26629       -2.41719       -0.25676
N         -3.10346        1.93411       -0.65482
H         -4.07075        1.93095       -0.96264
H         -2.62460        2.82674       -0.60749
