27
Coordinates from ORCA-job ./opt_b97-3c_parallel
N          4.60351        1.62966        0.33564
C          3.77149        0.86028        0.20368
C          2.76317       -0.13973        0.05500
C          3.09402       -1.47010       -0.03883
N          2.04817       -2.28619       -0.12549
C          1.03719       -1.35064       -0.09042
C          1.32559        0.04898        0.00569
C          0.31165        1.05969       -0.07522
C          0.78546        2.40861       -0.05941
N          1.18428        3.47761       -0.01845
C         -1.07383        0.62029       -0.08696
C         -2.08291        1.67722       -0.12995
C         -3.46221        1.52322       -0.10001
N         -4.34538        0.50993       -0.00193
C         -3.80990       -0.75395        0.02164
N         -4.72387       -1.35906        0.14899
H         -4.83224       -2.32612        0.45335
H         -5.67010       -0.97759        0.11276
N         -2.61777       -1.23180       -0.07354
C         -1.40186       -0.79870       -0.07398
C         -0.33425       -1.77874       -0.10175
H         -0.56884       -2.83974       -0.13401
H         -4.03675        2.46273       -0.13318
H         -1.72569        2.70063       -0.18266
N          3.96059       -2.16163       -0.05635
H          4.25738       -3.12090       -0.24295
H          4.82641       -1.63596        0.08263
