29
Coordinates from ORCA-job ./opt_b97-3c_parallel
N         -4.34437       -2.78849       -0.86474
C         -3.65115       -2.06275       -0.31793
C         -2.92374       -0.85196       -0.09902
C         -1.52776       -0.63952       -0.09506
C         -1.34088        0.68280        0.13041
N         -2.52363        1.32563        0.28005
C         -3.29964        0.52289        0.14983
N         -4.60664        0.90698        0.22621
H         -5.34046        0.25893       -0.03839
H         -4.83515        1.89353        0.28001
C         -0.04665        1.21010        0.20769
C          0.01819        2.58839        0.65061
N          0.04973        3.66789        1.02574
C          1.08791        0.35995       -0.00809
C          0.82624       -1.03672       -0.08482
N          1.78672       -1.96564       -0.05457
C          2.84150       -2.22356        0.03302
N          3.12346       -3.39520        0.66978
H          4.08525       -3.69261        0.78848
H          2.38494       -4.06588        0.85014
C          3.83282       -1.23776       -0.25223
C          3.61645        0.13551       -0.33891
C          2.41785        0.86559       -0.19463
C          2.67343        2.26382       -0.46705
N          2.90180        3.35767       -0.70891
H          4.52060        0.70506       -0.55255
H          4.83446       -1.63474       -0.40238
C         -0.47794       -1.53019       -0.15670
H         -0.66828       -2.59918       -0.24351
