29
Coordinates from ORCA-job ./opt_b97-3c_parallel
N          3.79578        2.89996        0.84488
C          3.20084        1.95258        0.60904
C          2.43317        0.76539        0.30275
C          3.30436       -0.31964       -0.08216
N          3.26741       -1.41386        0.05056
C          2.37244       -1.96160        0.39610
C          0.96313       -1.76100        0.16225
C          0.41316       -3.01039        0.64248
N         -0.01358       -3.98917        1.05087
C          0.29551       -0.51206        0.07973
C         -1.11349       -0.44957       -0.13610
C         -1.88054       -1.59035       -0.58768
N         -2.47767       -2.48937       -0.96412
C         -1.76316        0.78617       -0.01014
C         -1.05351        1.91868        0.31423
C          0.32006        1.90860        0.44593
C          1.02257        0.70332        0.27325
H          0.82237        2.85237        0.64334
C         -1.90907        3.00305        0.40022
C         -3.18147        2.53753        0.10752
C         -3.10125        1.17446       -0.15499
C         -4.24291        0.38007       -0.53229
N         -5.15626       -0.23218       -0.84363
H         -4.08605        3.14085        0.07338
H         -1.63378        4.02942        0.63102
H          2.94648       -2.88358        0.39194
N          4.19264       -0.24288       -1.11724
H          4.49551        0.66813       -1.44495
H          4.79624       -1.03367       -1.31797
