23
Coordinates from ORCA-job ./opt_b97-3c_parallel
N         -1.67433       -2.64529        1.62511
C         -1.77667       -1.57503        1.23500
C         -1.49890       -0.88776        0.40658
C         -2.56537       -0.24748       -0.17751
N         -2.87851        1.05032       -0.34529
C         -2.02984        1.98973        0.10829
N         -0.86561        1.91380        0.67388
C          0.05451        1.03600        0.42286
C          1.34031        1.50585        0.29369
C          2.37516        0.55581        0.01725
C          2.06361       -0.81424       -0.13848
N          3.28127       -1.33229       -0.37506
C          4.27244       -0.43835       -0.37555
C          3.69838        0.73739       -0.13518
H          4.21851        1.69052       -0.06630
H          5.28735       -0.82341       -0.56074
N          0.80034       -1.27064       -0.03457
C         -0.22868       -0.37624        0.26809
H          1.58359        2.55922        0.40159
H         -2.64026        2.85422       -0.19650
N         -3.51633       -0.31912       -0.74356
H         -4.45178        0.07798       -0.83315
H         -3.64419       -1.32615       -0.66183
