26
Coordinates from ORCA-job ./opt_b97-3c_parallel
N         -2.47124       -3.19315        0.12026
C         -2.45172       -2.06333        0.30228
C         -2.13850       -0.99966        0.20602
C         -3.27239       -0.25461       -0.03501
N         -3.54935        1.05888        0.05335
C         -2.56076        1.93110        0.31802
N         -1.28433        1.72297        0.28303
C         -0.35473        0.80909        0.19951
C          0.98066        1.19221        0.02192
C          1.39362        2.56357       -0.18654
N          1.74205        3.63402       -0.36696
C          2.06798        0.24763       -0.07503
C          1.67772       -1.08765        0.17655
N          2.74801       -1.87039        0.18917
C          3.74321       -0.93900       -0.07844
N          4.76395       -1.35674       -0.12240
H          5.58975       -0.81955       -0.38605
H          5.08973       -2.30366        0.07013
N          3.35259        0.29913       -0.24152
C          0.34177       -1.55075        0.41698
C         -0.70046       -0.54838        0.28775
H          0.16164       -2.59446        0.65909
H         -2.76984        2.99728        0.49698
N         -4.32173       -0.10871       -0.38196
H         -4.28131       -1.06104       -0.74132
H         -5.23526        0.25689       -0.64563
