30
Coordinates from ORCA-job ./opt_b97-3c_parallel
N         -4.35626       -2.63304       -0.12357
C         -3.66286       -1.72816       -0.04173
C         -2.97765       -0.47447       -0.01391
C         -1.58722       -0.23696       -0.00789
C         -1.44548        1.11005        0.02327
N         -2.62715        1.76169        0.03803
C         -3.37442        0.91809        0.01966
N         -4.69095        1.27743        0.03323
H         -5.41063        0.57383       -0.09329
H         -4.94911        2.25393       -0.05186
C         -0.16808        1.65376        0.03609
C          0.96977        0.82232        0.01900
C          2.18016        1.52265        0.02953
C          3.49150        1.05459        0.01898
N          4.47014        2.01063        0.02578
H          5.42548        1.73047       -0.16687
H          4.21169        2.97497       -0.15196
C          3.93198       -0.26338        0.00523
C          3.18076       -1.43241       -0.00906
N          3.89194       -2.60104       -0.01621
H          4.88614       -2.56718        0.18084
H          3.40165       -3.47148        0.15679
C          1.79492       -1.56162       -0.01972
C          0.79632       -0.58381       -0.00844
C         -0.50891       -1.10561       -0.02355
H         -0.69078       -2.17818       -0.04640
H          1.44296       -2.59234       -0.03764
H          5.01308       -0.39867        0.00531
H          2.09475        2.60836        0.04745
H         -0.06762        2.73703        0.05987
