30
Coordinates from ORCA-job ./opt_b97-3c_parallel
N         -5.41615       -0.95895       -0.21814
C         -4.30655       -0.69141       -0.15524
C         -2.89566       -0.40007       -0.07571
C         -2.10497       -1.58371        0.13327
N         -0.77534       -1.71340        0.19137
C          0.21592       -0.81932        0.13944
N          1.35207       -1.44737        0.21491
C          2.52110       -0.89637        0.07817
C          2.65976        0.51791        0.03776
C          3.91808        1.01263       -0.09576
C          4.29732       -0.30937       -0.10722
N          5.39846       -0.39673       -0.20662
H          6.01771       -1.09550       -0.61650
H          6.00052        0.37009        0.09265
C          3.70566       -1.55021       -0.05350
H          3.84892       -2.28115       -0.84956
H          4.31536        1.71415        0.63812
C          1.41588        1.24343        0.11990
C          0.10394        0.61449        0.05576
C         -1.03860        1.39797       -0.09542
C         -0.74326        2.81490       -0.19018
N         -0.58209        3.80291        0.36137
C         -2.41699        0.91184       -0.18736
N         -3.17295        1.71609       -0.35079
H         -4.17416        1.59533       -0.50726
H         -3.00924        2.72294       -0.37820
H          1.67652        1.87959        0.96500
N         -2.05664       -2.67919        0.27201
H         -1.83598       -3.65619        0.46301
H         -3.06796       -2.59531        0.37316
