26
Coordinates from ORCA-job ./opt_b97-3c_parallel
N          4.29035        2.68011        0.26292
C          3.62990        1.75976        0.12547
C          2.81959        0.59183       -0.00257
C          1.38345        0.54579       -0.05637
C          1.15694       -0.84480       -0.09180
N          2.27354       -1.65711       -0.09401
C          3.24065       -0.72426       -0.04316
N          4.16633       -1.33205       -0.02606
H          4.47349       -2.28958       -0.20819
H          5.02370       -0.80724        0.15936
C         -0.21264       -1.30574       -0.06515
C         -0.46903       -2.71675       -0.06157
N         -0.68094       -3.83842       -0.09028
C         -1.24953       -0.35615       -0.04143
N         -2.52505       -0.82759        0.02168
C         -3.54970        0.11073        0.04059
N         -4.43908       -0.53637        0.13627
H         -4.59393       -1.51726        0.37001
H         -5.35718       -0.09460        0.20037
N         -3.99317        1.41955        0.01168
C         -2.94495        2.31715       -0.07301
N         -1.66332        2.12291       -0.09511
C         -0.97839        1.02144       -0.07667
C          0.39029        1.50289       -0.05721
H          0.69286        2.55144       -0.02265
H         -3.38785        3.32561       -0.11464
