27
Coordinates from ORCA-job ./opt_b97-3c_parallel
N          3.28567        2.93732        0.89088
C          2.70852        1.98039        0.65046
C          1.96260        0.77821        0.34428
C          2.86363       -0.31684        0.07539
N          2.84069       -1.40275        0.26700
C          1.91475       -1.96254        0.49138
C          0.52417       -1.77481        0.16044
C         -0.01771       -3.10649        0.31278
N         -0.43004       -4.16331        0.45370
C         -0.15389       -0.53322        0.05801
C         -1.55611       -0.46765       -0.17777
C         -2.40386       -1.58022       -0.54569
N         -3.09232       -2.43986       -0.85173
C         -2.17747        0.77176       -0.11268
C         -1.53130        1.92957        0.14832
N         -2.36245        2.99235        0.16226
C         -3.39767        2.59500       -0.05106
C         -3.52015        1.17345       -0.27560
H         -4.41686        0.60130       -0.49166
H         -4.16347        3.36193       -0.05816
C         -0.15927        1.91318        0.32217
C          0.55547        0.69936        0.24439
H          0.33638        2.86691        0.48795
H          2.51760       -2.86492        0.44637
N          3.79846       -0.29782       -0.92547
H          4.42028       -1.09042       -1.04100
H          4.09864        0.59313       -1.30625
