29
Coordinates from ORCA-job ./opt_b97-3c_parallel
N          4.19343        2.95857       -0.73014
C          3.88707        1.97926       -0.22670
C          3.10734        0.79227       -0.06196
C          1.70417        0.63544       -0.08882
C          1.46465       -0.68511        0.10916
N          2.61743       -1.37630        0.26546
C          3.42528       -0.59957        0.17321
N          4.71505       -1.02749        0.29594
H          4.91268       -2.01951        0.36760
H          5.48368       -0.39366        0.10682
C          0.15015       -1.16407        0.14194
C          0.00017       -2.57203        0.44335
N         -0.09632       -3.68167        0.69940
C         -0.93571       -0.25792       -0.04501
C         -2.28173       -0.69713       -0.14299
C         -2.80240       -2.03257       -0.33142
N         -3.23115       -3.07882       -0.50051
C         -3.43152        0.13945       -0.37669
N         -3.73285        1.19137       -0.22952
C         -2.99996        1.99905       -0.07461
N         -3.77716        2.91140        0.58001
H         -4.77895        2.76962        0.65020
H         -3.39772        3.81443        0.84117
C         -1.58064        2.16462       -0.23518
C         -0.63275        1.13298       -0.16380
C          0.69467        1.57008       -0.20813
H          0.94115        2.62453       -0.31820
H         -1.27829        3.20554       -0.33464
H         -4.48250       -0.12897       -0.42901
