32
Coordinates from ORCA-job ./opt_b97-3c_parallel
N         -5.62961       -1.16860        0.24279
C         -4.53303       -0.85004        0.18651
C         -3.14775       -0.43079        0.10453
C         -2.30126       -1.58177        0.08089
N         -1.22368       -1.48930        0.16392
C         -0.10599       -0.75638        0.15986
C          1.11563       -1.45957        0.26200
C          1.15983       -2.89389        0.46153
N          1.17989       -4.02592        0.62008
C          2.31152       -0.76754        0.13827
C          2.27119        0.55555       -0.13191
C          3.62946        0.90616       -0.29420
C          4.26090       -0.36540       -0.03475
N          3.57983       -1.23819        0.17181
N          5.61867       -0.48261       -0.04429
H          6.04891       -1.34755        0.26422
H          6.19967        0.34600       -0.10567
H          4.10098        1.86262       -0.49906
C          1.10235        1.29954       -0.24012
C          1.29734        2.63187       -0.77329
N          1.47549        3.67201       -1.21311
C         -0.15397        0.65964        0.01196
C         -1.38252        1.39952        0.15742
C         -1.28979        2.81555        0.48259
N         -1.24287        3.92287        0.76455
C         -2.72781        0.90994        0.19555
N         -3.76181        1.81773        0.32214
H         -4.69653        1.47371        0.51668
H         -3.54617        2.77821        0.56990
N         -2.35060       -2.56260       -0.87081
H         -3.25183       -2.80720       -1.26738
H         -1.64820       -3.29415       -0.85116
