27
Coordinates from ORCA-job ./opt_b97-3c_parallel
N         -3.83122       -3.16867       -0.00399
C         -3.13709       -2.26182       -0.00252
C         -2.61582       -0.93042       -0.00282
C         -1.25943       -0.55259       -0.00261
C         -1.24836        0.80390       -0.00309
N         -2.49964        1.31878       -0.00347
C         -3.16819        0.40779       -0.00321
N         -4.52197        0.58682       -0.00311
H         -5.14315       -0.21605       -0.00292
H         -4.92261        1.51686       -0.00333
C         -0.01255        1.45102       -0.00304
C          0.04009        2.89748       -0.00372
N          0.07045        4.04096       -0.00150
C          1.15830        0.65927       -0.00216
N          2.36361        1.25273       -0.00217
C          3.44746        1.10380       -0.00177
C          4.12089       -0.15897        0.00062
C          3.49879       -1.40779        0.00163
N          4.31526       -2.50432        0.00406
H          5.32313       -2.39432        0.00458
H          3.91422       -3.43629        0.00470
C          2.11800       -1.65252        0.00054
C          1.03606       -0.75434       -0.00119
N         -0.18204       -1.35386       -0.00155
H          1.84063       -2.70599        0.00149
H          5.20596       -0.07618        0.00166
H          3.87855        2.09789       -0.00187
