26
Coordinates from ORCA-job ./opt_b97-3c_parallel
N         -2.09257       -3.72266        0.21984
C         -1.87468       -2.60077        0.19251
C         -1.65197       -1.18397        0.15733
C         -2.86199       -0.37362        0.09770
N         -3.00992        0.99369       -0.13161
C         -1.92927        1.84057       -0.05549
N         -2.18344        2.88762       -0.28636
H         -1.63915        3.74981       -0.31658
H         -3.13035        3.13741       -0.57048
N         -0.81226        1.55209        0.50229
C          0.06051        0.63979        0.26522
C          1.46219        1.01506        0.21831
C          1.97908        2.34643        0.37054
N          1.64919        3.42231        0.57447
C          2.38604       -0.06303        0.01436
C          2.00668       -1.40509       -0.11380
C          3.16891       -2.06194       -0.26929
C          4.17113       -1.18566       -0.23484
N          3.72098        0.05881       -0.05873
H          5.22069       -1.50007       -0.34213
H          3.27438       -3.13608       -0.40305
N          0.69287       -1.64833       -0.04719
C         -0.31378       -0.75934        0.10888
N         -3.96476       -0.32435        0.06334
H         -3.99086       -1.34411        0.06446
H         -4.89720       -0.01802        0.33963
