30
Coordinates from ORCA-job ./opt_b97-3c_parallel
N          5.27629        1.08056        0.77669
C          4.19921        0.78974        0.52595
C          2.83877        0.40440        0.20867
C          2.07404        1.55445       -0.15367
N          1.00737        1.55353        0.04864
C         -0.13357        0.85964        0.12068
C         -1.31140        1.59759        0.34291
C         -1.31052        3.01879        0.61320
N         -1.32576        4.14157        0.82643
C         -2.51653        0.93184        0.25940
C         -2.61415       -0.35182       -0.14680
N         -3.91353       -0.69996       -0.30729
C         -4.56067        0.18509       -0.04314
C         -3.85082        1.37974        0.34861
H         -4.26352        2.33609        0.65378
H         -5.62754        0.01007       -0.11746
C         -1.46110       -1.10927       -0.37290
C         -1.70152       -2.37755       -1.03440
N         -1.90604       -3.36308       -1.57674
C         -0.16808       -0.54764       -0.09878
C          1.01873       -1.35553        0.03739
C          0.86311       -2.79333        0.20318
N          0.77018       -3.92265        0.35908
C          2.36440       -0.91881        0.26246
N          3.33443       -1.85549        0.56357
H          4.23690       -1.53483        0.89913
H          3.04750       -2.79992        0.80051
N          2.36799        2.38498       -1.19855
H          3.33332        2.46696       -1.50009
H          1.75948        3.17505       -1.38208
