26
Coordinates from ORCA-job ./opt_b97-3c_parallel
N         -1.88940       -2.68761       -1.23245
C         -2.00035       -2.28079       -0.17053
C         -1.89259       -0.85427       -0.01727
C         -3.25950       -0.54273        0.05799
N         -3.85191        0.70028        0.25184
C         -3.05391        1.81856        0.24830
C         -1.81997        2.33296        0.06019
C         -0.76108        1.47446        0.04242
N          0.35013        2.24009       -0.04829
C          1.57667        1.60435       -0.09612
N          2.68661        2.38440       -0.28679
C          3.72691        1.49917       -0.24440
C          3.20743        0.18836       -0.00206
C          4.10196       -0.90955        0.17203
N          4.79401       -1.80194        0.33783
C          1.75343        0.18887        0.04554
C          0.57681       -0.65657        0.06824
C          1.09353       -1.98987        0.17142
N          0.91557       -2.28960        1.25996
C         -0.71220        0.01905        0.03244
H          4.80127        1.72391       -0.33958
H         -1.71156        3.40294       -0.12972
H         -3.78787        2.61206        0.46468
N         -4.35818       -0.73558        0.07381
H         -5.35249       -0.64912        0.29747
H         -4.28382       -1.62343       -0.42805
