32
Coordinates from ORCA-job ./opt_b97-3c_parallel
N         -4.87127       -2.28759        0.28617
C         -4.09725       -1.45953        0.13997
C         -3.32380       -0.26064        0.05443
C         -1.92181       -0.10720        0.01269
C         -1.69819        1.21281       -0.05795
N         -2.83451        1.94057       -0.07049
C         -3.63716        1.15180       -0.01199
N         -4.92891        1.59199        0.00170
H         -5.13388        2.58038       -0.09233
H         -5.69789        0.93087        0.01820
C         -0.39338        1.66414       -0.09381
C          0.73336        0.78552       -0.06114
C          2.00981        1.42697       -0.06931
C          2.05993        2.88373       -0.16227
N          2.11563        4.02367       -0.23263
C          3.28816        0.84103        0.02860
C          3.61855       -0.50080        0.08073
C          2.81866       -1.62661        0.02046
N          3.56560       -2.78478        0.04086
H          4.56867       -2.72722       -0.09623
H          3.10646       -3.66908       -0.15326
C          1.41332       -1.69811       -0.04141
C          0.91667       -3.06744       -0.14737
N          0.53907       -4.14284       -0.24273
C          0.46623       -0.62997       -0.02259
C         -0.90042       -1.03061        0.03084
H         -1.23306       -2.06067        0.10072
H          4.68843       -0.70519        0.15178
N          4.41000        1.64071        0.07357
H          5.30093        1.22678        0.32481
H          4.29545        2.64150        0.19893
H         -0.31659        2.74522       -0.13606
