26
Coordinates from ORCA-job ./opt_b97-3c_parallel
N         -3.78968       -3.15887       -0.63906
C         -3.31413       -2.15821       -0.35848
C         -2.67057       -0.92778       -0.01439
C         -1.26566       -0.72506        0.18521
C         -1.27240        0.70922        0.14143
N         -2.35420        0.64823        0.35543
C         -3.38650        0.29421        0.18635
N         -4.27317        0.94470        0.24092
H         -4.77577        1.77043        0.56087
H         -4.96864        0.21621        0.08948
C         -0.00737        1.36703       -0.06794
C         -0.11411        2.80822       -0.05868
N         -0.17905        3.94885       -0.04521
C          1.20760        0.67036       -0.20814
N          2.31669        1.43816       -0.39289
C          3.59512        0.99129       -0.35595
N          4.16592       -0.22546        0.00077
C          3.37186       -1.34373        0.02504
N          4.04436       -2.15256        0.35589
H          5.06256       -2.12901        0.40260
H          3.76208       -3.04582        0.75735
N          2.16628       -1.52164       -0.38247
C          1.15210       -0.73470       -0.17583
C         -0.06980       -1.49043       -0.02885
H         -0.10540       -2.57405       -0.10419
H          4.03189        1.99359       -0.49114
