30
Coordinates from ORCA-job ./opt_b97-3c_parallel
N         -1.70270       -3.58337        0.76149
C         -1.79681       -2.47605        0.50071
C         -1.93282       -1.07770        0.22338
C         -3.32373       -0.66134        0.09884
N         -3.80971        0.54630       -0.26180
C         -3.13639        1.70102       -0.29200
N         -3.97320        2.32284       -0.67295
H         -4.94641        2.02538       -0.78734
H         -3.97918        3.29910       -0.97693
C         -1.95061        2.00261        0.29857
C         -0.86586        1.19240        0.13535
N          0.22679        1.99013        0.16201
C          1.47592        1.39537        0.10196
N          2.58315        2.19793        0.24779
C          3.65404        1.35081        0.13199
N          4.62567        1.87966        0.22504
H          5.42282        1.28160       -0.01084
H          5.04961        2.72706        0.61069
C          3.14510        0.03099       -0.11607
C          4.05695       -1.03799       -0.37247
N          4.81359       -1.86407       -0.59201
C          1.68528       -0.01068       -0.07281
C          0.52125       -0.88119       -0.05553
C          1.12621       -2.16622       -0.26566
N          0.93082       -2.39877       -1.36878
C         -0.79413       -0.25844        0.10214
H         -1.93608        2.77957        1.06482
N         -4.38521       -0.96550        0.09577
H         -4.11025       -1.92239        0.32088
H         -5.40535       -0.96347        0.12551
