27
Coordinates from ORCA-job ./opt_b97-3c_parallel
N         -3.60647       -2.82681       -0.47400
C         -3.06838       -1.82452       -0.35905
C         -2.37874       -0.56130       -0.19709
C         -3.30075        0.54642       -0.07012
N         -3.30286        1.64300       -0.18366
C         -2.38632        2.24416       -0.30583
C         -0.97506        2.05749       -0.11651
C         -0.29810        0.82497       -0.07625
C          1.11328        0.85079        0.01963
C          1.88200        2.07085        0.11824
N          2.48505        3.03772        0.20624
C          1.79752       -0.35731        0.00173
C          1.18191       -1.55952       -0.10786
N          2.04818       -2.59235       -0.11587
C          3.05467       -2.09252       -0.02554
C          3.17723       -0.65369        0.06675
C          4.52818       -0.20446        0.17789
N          5.31279        0.54193        0.54300
H          3.82513       -2.85513       -0.02207
C         -0.20122       -1.61573       -0.18871
C         -0.97066       -0.43328       -0.15823
H         -0.65831       -2.59913       -0.26012
H         -0.48495        3.02651       -0.05900
H         -2.92153        3.16107       -0.52543
N         -4.49946        0.49271        0.59416
H         -4.90892       -0.41195        0.80085
H         -5.12262        1.29206        0.56292
