30
Coordinates from ORCA-job ./opt_b97-3c_parallel
N          4.74798        1.22262       -0.79875
C          3.72952        0.75962       -0.56201
C          2.43170        0.18704       -0.27074
C          2.48563       -1.22757        0.02068
N          1.82657       -2.10087       -0.12376
C          0.76537       -1.96891       -0.39852
C         -0.29340       -1.01646       -0.18686
C         -1.57983       -1.55522       -0.10847
C         -2.68573       -0.73336        0.04985
C         -2.55369        0.69931        0.18499
C         -3.97016        1.01123        0.27452
C         -4.79069       -0.10016        0.20330
C         -3.98589       -1.19784        0.06559
H         -4.31120       -2.23088       -0.03179
H         -5.87719       -0.10005        0.24119
H         -4.40226        2.00291        0.38210
C         -1.20451        1.19108        0.09034
N         -1.25092        2.52472        0.39696
H         -2.11661        2.89377        0.77404
H         -0.38792        2.96933        0.69148
C         -0.06155        0.37979       -0.11382
C          1.24026        0.94112       -0.27283
N          1.38205        2.28868       -0.50349
H          2.27861        2.62638       -0.83740
H          0.55483        2.81067       -0.77348
H         -1.72292       -2.63007       -0.19889
H          0.71424       -3.05250       -0.37925
N          3.40067       -1.80360        0.86170
H          4.23348       -1.28378        1.11660
H          3.43141       -2.81308        0.94784
