30
Coordinates from ORCA-job ./opt_b97-3c_parallel
N         -5.45280       -1.07493       -0.36781
C         -4.35130       -0.80136       -0.22331
C         -2.93820       -0.45310       -0.05661
C         -2.05568       -1.53910        0.11141
C         -0.64229       -1.52155        0.14377
C         -0.02005       -2.84749        0.25098
N          0.44957       -3.88689        0.33699
C          0.25235       -0.41923        0.07046
N          1.57100       -0.79415       -0.00046
C          2.53607        0.12406       -0.01374
C          2.33404        1.44543        0.06642
N          3.47895        2.15823        0.06292
C          4.26891        1.35342       -0.01019
C          3.93098       -0.05329       -0.07597
C          4.84131       -1.14778       -0.18539
N          5.49455       -1.89740       -0.74919
H          5.24356        1.82645       -0.02493
C          1.02705        1.88871        0.12915
C         -0.07545        0.97637        0.10767
C         -1.37666        1.55477        0.11203
C         -1.45558        3.00926        0.25369
N         -1.53433        4.14407        0.36504
C         -2.63618        0.92497       -0.04754
N         -3.72975        1.76874       -0.19058
H         -4.62491        1.37735       -0.46626
H         -3.57475        2.75931       -0.34778
H          0.92958        2.96816        0.17246
N         -2.65665       -2.78539        0.22581
H         -2.08753       -3.62379        0.28339
H         -3.66385       -2.87760        0.14139
