27
Coordinates from ORCA-job ./opt_b97-3c_parallel
N         -1.92791       -3.73505        0.17620
C         -1.75015       -2.60560        0.14631
C         -1.58019       -1.18087        0.11002
C         -2.82444       -0.42246        0.14126
N         -3.04423        0.92517       -0.14100
C         -1.99796        1.81667       -0.17740
N         -0.87766        1.59447        0.40585
C          0.03651        0.71969        0.19096
C          1.40245        1.19004        0.20427
C          2.09222        2.43066        0.38134
N          1.72271        3.35617        0.94157
C          2.43867        0.21337        0.07973
C          2.05225       -1.11838       -0.28259
N          0.75208       -1.56950       -0.22173
C         -0.26267       -0.69875        0.01128
C          3.05411       -2.01123       -0.44758
C          4.15730       -1.37150       -0.14704
C          3.90231       -0.11404        0.17309
H          4.70587        0.56427        0.45124
H          5.15013       -1.81561       -0.16205
H          2.96448       -3.05233       -0.75127
N         -2.28161        2.84154       -0.46724
H         -1.73544        3.68809       -0.62530
H         -3.22002        3.03866       -0.81393
N         -3.92777       -0.45261        0.18273
H         -3.84266       -1.44619        0.39835
H         -4.87408       -0.18769        0.45451
