24
Coordinates from ORCA-job ./opt_b97-3c_parallel
N         -2.00109       -2.65697       -1.10239
C         -2.09938       -1.81683       -0.33218
C         -1.71529       -0.78517       -0.16448
C         -2.71008        0.16842       -0.13135
N         -2.95300        1.48289        0.04072
C         -2.00388        2.42622        0.26202
N         -0.62404        2.24883        0.29500
C         -0.15700        0.95659        0.16406
N          1.09321        1.56390        0.14877
C          2.15981        0.68388       -0.01916
N          3.41943        1.23349       -0.10047
C          4.36634        0.24997       -0.28941
C          3.46511       -0.76981       -0.27979
C          1.98924       -0.74623       -0.12639
C          0.62929       -1.21445       -0.00758
C          0.91368       -2.00950        1.14758
N          1.13975       -2.60865        2.09252
C         -0.45188       -0.37017        0.00678
H          3.79807       -1.80277       -0.36586
H          5.45837        0.17416       -0.41299
H         -2.73128        3.25124        0.32909
N         -3.79110        0.41329       -0.22716
H         -3.92085       -0.39697       -0.83243
H         -4.73260        0.73721       -0.00011
