29
Coordinates from ORCA-job ./opt_b97-3c_parallel
N          5.74481        0.06383       -0.00063
C          4.60462       -0.01407        0.01175
C          3.16664       -0.12661        0.02100
C          2.48699       -1.40254       -0.02709
N          1.41584       -1.66665       -0.10818
C          0.21614       -1.04183       -0.07904
C         -0.93742       -1.82296       -0.19452
C         -2.16496       -1.18582       -0.13498
C         -3.48085       -1.67661       -0.21657
C         -4.21554       -0.44203       -0.06186
N         -5.57809       -0.43016       -0.10150
H         -6.08310        0.42846        0.08889
H         -6.09920       -1.29770       -0.15938
N         -3.61809        0.50423        0.07823
C         -2.31090        0.15249        0.04321
C         -1.17656        0.95909        0.15655
C         -1.33348        2.38434        0.34671
N         -1.44878        3.51010        0.50949
C          0.10159        0.36479        0.07785
N          1.21339        1.13962        0.13463
C          2.31226        1.03839        0.07906
N          2.63854        2.25382       -0.45444
H          3.60966        2.46777       -0.65508
H          1.98589        3.02691       -0.38487
H         -3.86270       -2.67915       -0.38067
H         -0.87660       -2.90133       -0.32331
N          3.02607       -2.57097        0.43378
H          2.50136       -3.43496        0.36061
H          4.02465       -2.63025        0.60301
