27
Coordinates from ORCA-job ./opt_b97-3c_parallel
N         -4.59831       -2.34322       -0.14841
C         -3.67405       -1.67854       -0.04420
C         -2.81198       -0.53849       -0.01989
C         -1.40133       -0.51272       -0.00484
C         -1.05380        0.79964        0.01449
N         -2.13095        1.61765        0.01390
C         -2.99788        0.89790       -0.00386
N         -4.24677        1.44945       -0.01186
H         -5.07064        0.85800        0.01396
H         -4.36399        2.45476        0.04996
C          0.30215        1.12077        0.03148
C          0.71016        2.50883        0.04871
N          1.03763        3.60386        0.07243
C          1.24046        0.06654        0.03045
N          2.55283        0.35344        0.04058
C          3.56580       -0.05520        0.04074
N          4.47837        0.95056       -0.07402
H          4.16460        1.90167       -0.23341
H          5.45608        0.73381       -0.23148
C          3.92463       -1.43968        0.07738
C          3.00988       -2.49024        0.06111
C          1.61219       -2.40439        0.02668
C          0.77543       -1.27445        0.01578
N         -0.55385       -1.55560       -0.00413
H          1.10553       -3.36794        0.01530
H          3.43023       -3.49271        0.07911
H          4.98977       -1.65679        0.11270
