28
Coordinates from ORCA-job ./opt_b97-3c_parallel
N          1.61200        3.02722       -0.77556
C          1.79025        2.19889       -0.00463
C          1.66511        1.09315        0.01978
C          2.95438        0.59712       -0.08734
N          3.59514       -0.63756       -0.03042
C          2.75468       -1.74177        0.05229
N          1.46858       -1.78215       -0.09913
C          0.36808       -1.07605       -0.13197
C         -0.82507       -1.88142       -0.26003
C         -2.05842       -1.15126       -0.14741
N         -3.26383       -1.68703       -0.28488
C         -4.07712       -0.56877       -0.12381
N         -5.17958       -0.52215       -0.16696
H         -5.77432        0.23462        0.17332
H         -5.81254       -1.19932       -0.59419
N         -3.43777        0.55274        0.09077
C         -2.17857        0.23734        0.08732
C         -0.90808        0.92520        0.19637
C         -1.13563        2.23561        0.76001
N         -1.32546        3.25596        1.23523
C          0.35661        0.31849        0.02916
H         -0.82264       -2.94833       -0.47024
N          3.26420       -2.70626        0.21609
H          3.11207       -3.67649        0.49274
H          4.24532       -2.51471        0.42332
N          4.06005        0.65089       -0.24234
H          5.07225        0.59319       -0.36919
H          3.79233        1.54383       -0.65726
