24
Coordinates from ORCA-job ./opt_b97-3c_parallel
N         -2.06836       -3.26338       -0.03114
C         -1.81303       -2.14990       -0.02040
C         -1.55686       -0.73851       -0.00955
C         -2.79031       -0.09070       -0.03828
N         -3.17232        1.19885       -0.03344
C         -2.12510        2.08735       -0.00121
C         -0.78810        2.27808        0.02286
C          0.11609        1.25978        0.01338
C          1.52292        1.62714       -0.00758
C          2.54111        0.69682       -0.03317
C          2.20534       -0.66682       -0.02226
N          3.30622       -1.39675       -0.04204
C          4.24578       -0.37624       -0.07208
N          3.82177        0.86195       -0.06777
H          5.29541       -0.70758       -0.09194
C          0.85532       -1.12308        0.03706
C         -0.21749       -0.16111        0.01496
H          0.96323       -2.15711        0.36175
H          1.76614        2.68585       -0.01522
H         -0.42439        3.30484        0.04107
H         -2.61753        3.07242        0.01256
N         -3.89908       -0.16678       -0.06775
H         -3.88987       -1.18262       -0.16836
H         -4.88410        0.09896       -0.08208
