27
Coordinates from ORCA-job ./opt_b97-3c_parallel
N          3.41043        2.87030        0.91622
C          2.80576        1.93305        0.66250
C          2.02540        0.75865        0.33814
C          2.88692       -0.36188        0.04426
N          2.82551       -1.44979        0.21420
C          1.88189       -1.97255        0.45304
C          0.49792       -1.73852        0.12231
C         -0.09719       -3.03738        0.34592
N         -0.55360       -4.06595        0.54750
C         -0.13813       -0.47300        0.02881
C         -1.53831       -0.36331       -0.22432
C         -2.37594       -1.45424       -0.67586
N         -3.04399       -2.30179       -1.05373
C         -2.15976        0.88303       -0.12349
C         -1.43036        1.97487        0.19410
C         -0.06175        1.95477        0.35804
C          0.61591        0.72757        0.24261
H          0.45020        2.89493        0.54583
C         -2.35476        3.03536        0.19651
C         -3.56509        2.32549       -0.14725
N         -3.45891        1.21420       -0.31448
H         -4.57441        2.70166       -0.26801
H         -2.22916        4.09247        0.40703
H          2.42567       -2.90937        0.53174
N          3.83283       -0.35019       -0.94627
H          4.42581       -1.16220       -1.07791
H          4.17024        0.53887       -1.29926
