32
Coordinates from ORCA-job ./opt_b97-3c_parallel
N         -5.73150       -1.69844       -0.38132
C         -4.66265       -1.30772       -0.27157
C         -3.31297       -0.79988       -0.11637
C         -2.37927       -1.86224        0.09235
N         -1.30615       -1.78221       -0.07204
C         -0.27933       -0.93033       -0.09945
C          0.97815       -1.52307       -0.25054
C          2.10170       -0.73042       -0.15627
C          2.03308        0.57412        0.20410
N          3.26605        1.09695        0.39912
C          3.96795        0.24898        0.17287
N          5.30346        0.51681        0.25443
H          5.61272        1.47218        0.39211
H          5.97525       -0.15638       -0.09730
C          3.47428       -1.05837       -0.20296
C          4.09712       -2.29462       -0.55822
N          4.73851       -2.98682       -1.20378
C          0.78830        1.19393        0.36084
C          0.83431        2.49390        1.00317
N          0.87967        3.50590        1.53343
C         -0.41723        0.47407        0.06790
C         -1.67756        1.13829       -0.13167
C         -1.64685        2.55468       -0.47004
N         -1.64200        3.65970       -0.76466
C         -2.97936        0.55934       -0.25616
N         -4.05112        1.38683       -0.53128
H         -3.86576        2.33509       -0.84256
H         -4.93261        0.96516       -0.80584
H          1.07541       -2.59504       -0.41438
N         -2.55417       -2.90279        0.96235
H         -3.49791       -3.15972        1.23187
H         -1.84464       -3.62481        1.01650
