29
Coordinates from ORCA-job ./opt_b97-3c_parallel
N         -5.30317        0.07956        0.70569
C         -4.19995       -0.05650        0.44039
C         -2.81228       -0.24408        0.14600
C         -2.20472       -1.54617        0.28527
N         -0.89695       -1.86815        0.12889
C          0.13868       -0.99163        0.05230
N          1.35293       -1.56774       -0.15248
C          2.46820       -0.81302       -0.16773
N          3.72852       -1.20852       -0.32719
C          4.38513       -0.03439       -0.22919
N          5.44372       -0.34153       -0.33705
H          5.80315       -1.16517       -0.82083
H          6.24838        0.08100        0.12645
C          3.77084        1.18341       -0.02174
C          2.43813        0.54223        0.01243
C          1.22358        1.18231        0.21526
C          0.05761        0.40587        0.25428
C         -1.19185        1.07375        0.47588
C         -1.38775        2.15280        1.39768
N         -1.50618        3.03275        2.11621
C         -2.24203        0.88716       -0.36312
N         -2.50076        1.58727       -1.48119
H         -2.30494        2.58672       -1.50450
H         -3.39460        1.45269       -1.95356
H          1.18829        2.26101        0.35607
H          4.34290        2.10563        0.05245
N         -2.24053       -2.62363        0.51769
H         -3.25753       -2.60767        0.46381
H         -1.95815       -3.59794        0.42585
