29
Coordinates from ORCA-job ./opt_b97-3c_parallel
N         -4.18417       -2.68856        0.29518
C         -3.68380       -1.66873        0.16881
C         -2.94894       -0.44540        0.09139
C         -1.55163       -0.25354        0.06148
C         -1.36822        1.09023       -0.01531
N         -2.53051        1.77620       -0.03765
C         -3.30303        0.95732        0.01711
N         -4.60794        1.35759        0.00936
H         -5.35050        0.66945       -0.04932
H         -4.83652        2.33103       -0.15769
C         -0.07404        1.59605       -0.06088
C          1.02302        0.72243       -0.03513
N          2.24632        1.26878       -0.07055
C          3.30641        1.00175       -0.06299
N          4.01395        2.15441        0.11275
H          3.52238        3.02018        0.30294
H          5.00481        2.11092        0.32214
C          3.91403       -0.29353       -0.10315
C          3.21710       -1.50059       -0.04278
N          3.96674       -2.64362       -0.06558
H          3.49829       -3.53012       -0.21718
H          4.94791       -2.57632       -0.31340
C          1.82398       -1.65513        0.03337
C          0.81336       -0.67627        0.03145
C         -0.50258       -1.16101        0.08658
H         -0.71068       -2.22744        0.14102
H          1.48061       -2.68704        0.08448
H          5.00033       -0.28680       -0.16803
H          0.08272        2.67142       -0.11717
