27
Coordinates from ORCA-job ./opt_b97-3c_parallel
N          3.95019        3.35470        0.00255
C          3.13303        2.55586        0.00140
C          2.47802        1.28602        0.00128
C          1.10908        0.86036       -0.00025
C          0.85871       -0.49331       -0.00179
N         -0.39187       -0.99973       -0.00345
C         -1.47659       -0.17347       -0.00269
C         -2.76173       -0.77680       -0.00385
C         -2.84839       -2.22333       -0.00585
N         -2.93443       -3.36347       -0.00705
C         -4.02095       -0.14980       -0.00300
C         -4.31244        1.21350       -0.00126
C         -3.35793        2.27832        0.00061
N         -2.27854        2.11079        0.00100
C         -1.27459        1.22616       -0.00030
C          0.02833        1.73505        0.00094
H          0.19549        2.81030        0.00283
H         -3.53881        3.34651        0.00127
H         -5.34690        1.54876       -0.00057
H         -4.89370       -0.80121       -0.00379
C          1.98851       -1.37631       -0.00244
C          2.04569       -2.80555        0.00057
N          2.67449       -3.76043        0.00293
C          2.73552       -0.13792        0.00057
N          4.07121       -0.44838        0.00500
H          4.36820       -1.41936        0.00157
H          4.77031        0.28730        0.00332
