26
Coordinates from ORCA-job ./opt_b97-3c_parallel
N          4.07460        2.67694       -0.00908
C          3.23192        1.90451       -0.00844
C          2.49230        0.68108       -0.00805
C          1.09226        0.50741       -0.00617
C          0.87792       -0.82740       -0.00621
N          2.03552       -1.52854       -0.00807
C          2.82801       -0.72774       -0.00892
N          4.12812       -1.14421       -0.01073
H          4.35168       -2.13320       -0.01042
H          4.88558       -0.46934       -0.01056
C         -0.43814       -1.28640       -0.00453
C         -0.63193       -2.72218       -0.00475
N         -0.79781       -3.85316       -0.00479
C         -1.50289       -0.33760       -0.00287
C         -2.81689       -0.84751       -0.00093
C         -4.04547       -0.19838        0.00118
C         -4.32069        1.15699        0.00180
C         -3.41375        2.19957        0.00032
C         -2.02840        2.13857       -0.00183
C         -1.15581        1.04596       -0.00317
N          0.14191        1.44938       -0.00487
H         -1.55606        3.12053       -0.00248
H         -3.84259        3.19911        0.00101
H         -5.37234        1.43485        0.00353
H         -4.91758       -0.84869        0.00254
H         -2.94902       -1.92428       -0.00092
