26
Coordinates from ORCA-job ./opt_b97-3c_parallel
N         -1.92993       -3.47680       -0.03748
C         -2.01777       -2.33833        0.00979
C         -2.07974       -0.90582        0.05778
C         -3.43479       -0.36980        0.04676
N         -3.88748        0.90032        0.08195
C         -3.17925        2.03042        0.11070
N         -1.82270        1.99244        0.07512
C         -0.71422        1.27802        0.04153
N          0.47749        1.92499       -0.00322
C          1.61274        1.20824       -0.02760
N          2.86474        1.65162       -0.09827
C          3.54772        0.48976       -0.09604
N          4.55068        0.95809       -0.18554
H          5.05937        1.73597       -0.60693
H          5.25743        0.27132        0.08364
C          2.96535       -0.76269       -0.01584
C          3.33184       -1.80563        0.01454
N          4.23984       -2.28830        0.51417
C          1.60981       -0.15728        0.01071
C          0.40010       -0.84308        0.06100
C         -0.82103       -0.13175        0.05925
H          0.43961       -1.92857        0.08957
H         -3.90806        2.85471        0.14040
N         -4.52036       -0.56772        0.02412
H         -5.46903       -0.28610       -0.21807
H         -4.36431       -1.47331       -0.41374
