27
Coordinates from ORCA-job ./opt_b97-3c_parallel
N         -1.43436       -3.71561        0.02298
C         -1.50397       -2.57613        0.02459
C         -1.54441       -1.14273        0.01720
C         -2.90048       -0.61037        0.02628
N         -3.30728        0.67303       -0.03472
C         -2.51255        1.74300       -0.02963
N         -3.34109        2.47955       -0.10770
H         -3.26734        3.49712       -0.17422
H         -4.35055        2.30904       -0.11807
C         -1.18509        1.98740        0.10727
C         -0.22387        1.01378        0.03254
N          0.96523        1.67501        0.03207
C          2.16982        0.97786        0.00575
N          3.52412        1.25739        0.01553
C          4.25898        0.07005       -0.01939
N          5.35911       -0.03980       -0.01225
H          6.08327        0.66571        0.14006
H          5.86870       -0.91910       -0.12276
N          3.36583       -0.99406       -0.05744
C          2.11840       -0.42586       -0.04055
C          0.88704       -1.15110       -0.05202
C         -0.31724       -0.44475       -0.00565
H          0.97226       -2.23326       -0.08847
H         -0.90164        3.01085        0.36887
N         -3.98197       -0.83590        0.03790
H         -4.99716       -0.75219        0.10501
H         -3.78799       -1.83430        0.12108
