29
Coordinates from ORCA-job ./opt_b97-3c_parallel
N         -2.72878       -3.92480        0.00819
C         -2.43297       -2.82156        0.04913
C         -2.16049       -1.41877        0.01404
C         -0.94410       -0.65961        0.01390
C         -1.06026        0.71533        0.00052
C         -2.38649        1.26036       -0.01222
C         -2.90933        2.59088       -0.03037
N         -3.73689        3.37878       -0.03941
C         -2.80175       -0.12421       -0.01049
N         -4.16184       -0.28114       -0.07201
H         -4.76959        0.52993       -0.01821
H         -4.56859       -1.20847       -0.00004
C          0.08437        1.50872       -0.00011
C          1.35665        0.92960        0.01266
N          2.41622        1.75004        0.01268
C          3.51092        1.76996        0.01956
C          4.39994        0.64982        0.02854
C          4.01410       -0.69133        0.03423
N          5.02155       -1.61580        0.04094
H          4.79494       -2.58775       -0.13824
H          5.97058       -1.30599       -0.13756
C          2.69922       -1.18125        0.03461
C          1.48254       -0.47362        0.02447
C          0.31755       -1.25292        0.02580
H          0.39000       -2.33863        0.03567
H          2.61471       -2.26647        0.04309
H          5.45069        0.93120        0.03108
H          3.75340        2.82570        0.01546
H         -0.01085        2.59330       -0.01019
