31
Coordinates from ORCA-job ./opt_b97-3c_parallel
N         -3.46010       -2.84178       -1.07284
C         -3.11122       -1.83411       -0.65954
C         -2.70573       -0.54343       -0.18587
C         -3.82472        0.36932        0.01536
N         -3.78158        1.61079        0.53899
C         -2.68973        2.37714        0.61279
N         -1.76583        2.17266       -0.25775
C         -0.90019        1.23634       -0.06104
C          0.44017        1.60609       -0.05564
C          0.86020        2.97825       -0.17412
N          1.10249        4.08081        0.00589
C          1.43688        0.65590        0.02137
C          1.10206       -0.71023        0.17592
C          2.32384       -1.47117        0.24000
C          2.43671       -2.89853        0.36183
N          2.56851       -4.03062        0.44768
C          3.35821       -0.56070        0.10499
C          2.81160        0.77392       -0.02829
C          3.75113        1.84896       -0.19831
N          4.15200        2.28759       -1.17483
N          4.41706       -0.89395        0.09540
H          4.70518       -1.86625       -0.00629
H          5.06039       -0.33652       -0.46522
C         -0.26482       -1.18869        0.22892
C         -0.55273       -2.55037        0.58150
N         -0.78815       -3.61902        0.90776
C         -1.29503       -0.16149        0.02969
H         -3.21213        3.20945        1.10948
N         -4.91901        0.51881        0.00845
H         -4.84777       -0.21135       -0.69789
H         -5.57700        1.20717       -0.35179
