32
Coordinates from ORCA-job ./opt_b97-3c_parallel
N         -5.62792       -0.70427        1.15431
C         -4.55496       -0.65362        0.76657
C         -3.21098       -0.63721        0.27878
C         -2.39923       -1.81814        0.33811
N         -1.09368       -1.82098       -0.00825
C         -0.21502       -0.81212       -0.22788
N          0.95326       -1.34651       -0.36151
C          2.05416       -0.69310       -0.16908
C          2.06711        0.70104        0.17246
C          3.28966        1.30075        0.35473
C          4.03855        0.19098        0.06983
N          5.11838        0.42275        0.10946
H          5.79001       -0.18979       -0.35302
H          5.64689        1.23689        0.42235
C          3.37419       -1.03505       -0.23934
C          3.90911       -2.32088       -0.57186
N          3.70854       -2.83774       -1.57148
H          3.48510        1.90597        1.24102
C          0.79272        1.39624        0.28432
C          0.80597        2.79066        0.60650
N          0.86008        3.89828        0.87948
C         -0.41219        0.59174        0.07244
C         -1.75095        1.14649        0.10607
C         -2.17201        2.48465        0.39814
N         -2.53595        3.54769        0.60224
C         -2.83965        0.49200       -0.37800
N         -3.26249        0.60574       -1.65188
H         -3.21159        1.51425       -2.11440
H         -4.16673        0.21033       -1.91340
N         -2.23626       -2.87762        0.59534
H         -1.89052       -3.80197        0.85171
H         -3.25310       -2.92684        0.66198
