29
Coordinates from ORCA-job ./opt_b97-3c_parallel
N         -4.98269       -0.85947       -0.95933
C         -3.90113       -0.64359       -0.65612
C         -2.53391       -0.35328       -0.27593
C         -1.77993       -1.55339       -0.07260
N         -0.69754       -1.62442       -0.14382
C          0.43649       -0.92188       -0.09611
C          1.61415       -1.67208       -0.22722
C          2.83386       -1.02776       -0.14886
C          2.89856        0.32029        0.07050
C          4.23072        0.70103        0.09737
C          4.98764       -0.44884       -0.11032
C          4.12090       -1.52758       -0.26099
H          4.40147       -2.56267       -0.44015
H          6.07309       -0.49533       -0.15281
H          4.61354        1.70815        0.24433
C          1.75306        1.08816        0.21015
C          0.47032        0.48587        0.10910
C         -0.69253        1.31724        0.17664
C         -0.48500        2.72994        0.46060
N         -0.33651        3.84177        0.68354
C         -2.04761        0.95087       -0.07556
N         -2.99601        1.95012       -0.15894
H         -3.91366        1.72361       -0.52796
H         -2.68677        2.91539       -0.20807
H          1.90153        2.15246        0.36599
H          1.57509       -2.74800       -0.38512
N         -2.17832       -2.60255        0.70865
H         -3.16864       -2.73813        0.88165
H         -1.57503       -3.41291        0.79061
