28
Coordinates from ORCA-job ./opt_b97-3c_parallel
N          5.42070        0.16929       -0.19542
C          4.28798        0.07378       -0.07622
C          2.85901       -0.06032        0.06549
C          1.97210        1.08180        0.02211
N          0.87230        1.16928       -0.04326
C         -0.22557        0.37389       -0.00877
C         -0.09050       -1.03327        0.14008
N          1.12022       -1.63387        0.19886
C          2.18422       -1.33723        0.14791
N          2.69503       -2.50703       -0.34065
H          3.68368       -2.57491       -0.55644
H          2.15830       -3.36406       -0.27002
C         -1.22812       -1.84594        0.21232
C         -2.47728       -1.25403        0.11515
C         -3.73382       -1.83641        0.14663
C         -4.66141       -0.81097       -0.00457
C         -3.97397        0.39290       -0.12632
C         -2.61764        0.10357       -0.04909
C         -1.51000        0.94580       -0.11217
C         -1.69955        2.36907       -0.28015
N         -1.86317        3.49206       -0.41885
H         -4.42142        1.37522       -0.25933
H         -5.74199       -0.93016       -0.02596
H         -3.95476       -2.89469        0.26406
H         -1.13673       -2.92329        0.33147
N          2.31011        2.33280        0.45594
H          3.28705        2.57085        0.58646
H          1.64238        3.09149        0.37100
