27
Coordinates from ORCA-job ./opt_b97-3c_parallel
N         -3.79938       -2.88143       -0.00819
C         -3.22570       -1.89241        0.00099
C         -2.65063       -0.58517        0.01156
C         -1.28245       -0.24565        0.00287
C         -1.24155        1.11143        0.02026
N         -2.47261        1.66592        0.03901
C         -3.15947        0.77087        0.03458
N         -4.50404        1.00438        0.05381
H         -5.15960        0.23071        0.03098
H         -4.86266        1.95240        0.04932
C         -0.00670        1.75155        0.01763
C          1.17564        0.99520       -0.00168
N          2.33930        1.66011       -0.00395
C          3.42486        1.52189       -0.01575
C          4.15467        0.29087       -0.02861
C          3.58762       -0.98413       -0.03664
N          4.45295       -2.04194       -0.04833
H          5.43578       -1.87201        0.13373
H          4.08874       -2.97192        0.12700
C          2.21788       -1.28611       -0.03396
C          1.11158       -0.41807       -0.01793
C         -0.14591       -1.03925       -0.01619
H         -0.24123       -2.12248       -0.02825
H          1.98324       -2.34914       -0.04449
H          5.23443        0.42313       -0.03441
H          3.80969        2.53422       -0.00090
H          0.03780        2.83878        0.03097
