28
Coordinates from ORCA-job ./opt_b97-3c_parallel
N          3.78069        2.86286       -0.06484
C          3.30529        1.82605       -0.08237
C          2.76026        0.50710       -0.09934
C          1.35317        0.25559       -0.12698
C          1.25930       -1.19867       -0.12239
N          2.52572       -1.76688       -0.09094
C          3.36325       -0.72418       -0.07711
N          4.39405       -1.13167       -0.04191
H          4.86532       -2.03850       -0.01579
H          5.14705       -0.44147        0.01331
N          0.09477       -1.79430       -0.12403
C         -0.92625       -0.97773       -0.02343
C         -2.14421       -1.61572        0.14961
C         -3.46039       -1.00293        0.08951
N         -4.28261       -1.73884        0.13469
H         -5.20374       -1.31005        0.22043
H         -4.44645       -2.74301        0.07398
C         -3.82639        0.31148       -0.16003
C         -2.91152        1.41681       -0.13590
N         -3.29387        2.43192       -0.34083
H         -3.04827        3.41867       -0.26985
H         -4.31320        2.39836       -0.33291
C         -1.64584        1.37864        0.35094
C         -0.72039        0.46437       -0.03283
N          0.35668        0.77721       -0.13741
H         -1.37067        2.09098        1.13111
H         -4.87039        0.55876       -0.35695
H         -2.12679       -2.70207        0.24578
