26
Coordinates from ORCA-job ./opt_b97-3c_parallel
N         -4.49684       -1.74454       -0.91094
C         -3.50833       -1.72232       -0.33737
C         -2.79884       -0.50257       -0.09301
C         -1.40569       -0.25829        0.01023
C         -1.18475        1.08331        0.19522
N         -2.34799        1.75485        0.24276
C         -3.32433        0.76629        0.07212
N         -4.28780        1.31086        0.10650
H         -4.83852        2.01931        0.59191
H         -4.96146        0.69437       -0.35286
N          0.07172        1.55720        0.30768
C          1.06153        0.63269        0.24351
N          2.21386        1.24368        0.34193
C          3.47176        1.02769        0.12193
N          3.71864        1.88812       -0.52015
H          3.64510        2.90352       -0.53493
H          4.58754        1.64913       -0.99507
C          3.95326       -0.23583        0.29364
C          3.08261       -1.27989        0.16939
N          3.30932       -2.35968        0.13653
H          2.96121       -3.30664        0.27755
H          4.29331       -2.37291        0.39877
N          1.81632       -1.71382        0.05970
C          0.84375       -0.76552        0.08355
N         -0.43888       -1.19629       -0.03981
H          5.02093       -0.40717        0.41891
