25
Coordinates from ORCA-job ./opt_b97-3c_parallel
N          5.30697       -0.02155        0.52869
C          4.17186       -0.13504        0.60536
C          3.12320       -0.03825        0.25446
C          2.36702        1.09343        0.07545
N          1.15943        1.67606       -0.05723
C          0.06684        0.86549       -0.01431
N         -1.14876        1.45615       -0.11778
C         -2.26546        0.69531       -0.07880
N         -3.51496        1.16090       -0.17256
C         -4.08823       -0.09359       -0.05982
N         -5.19365       -0.09689       -0.09833
H         -5.79258        0.51053       -0.65786
H         -5.82036       -0.69810        0.43673
N         -3.39270       -1.28091        0.09042
C         -2.19681       -0.68411        0.06797
N         -1.00856       -1.31536        0.16918
C          0.09829       -0.54231        0.12667
N          1.16693       -1.29631        0.19307
C          2.45310       -1.21406        0.04142
N          2.34426       -2.25642       -0.31751
H          2.16354       -3.23668       -0.10798
H          3.31730       -2.19594       -0.61285
N          2.52683        2.18512       -0.05234
H          2.36825        3.18885       -0.13510
H          3.51920        2.07167        0.14816
