28
Coordinates from ORCA-job ./opt_b97-3c_parallel
N         -4.19746       -2.60649       -0.51194
C         -3.56354       -1.74122       -0.11813
C         -2.86719       -0.49563       -0.03074
C         -1.47551       -0.26389       -0.01587
C         -1.32940        1.08607        0.07179
N         -2.51028        1.73784        0.11767
C         -3.25747        0.89625        0.06228
N         -4.57079        1.26696        0.08315
H         -5.30039        0.56348        0.11704
H         -4.82179        2.23616        0.24299
C         -0.05121        1.63487        0.10089
C          1.06912        0.79466        0.04278
N          2.29879        1.35689        0.05351
C          3.36310        1.06356        0.01296
N          4.13156        2.18391       -0.10830
H          3.68704        3.08691       -0.22917
H          5.11608        2.10015       -0.33483
C          3.90132       -0.27306       -0.03848
C          3.04702       -1.43448       -0.04213
N          3.50263       -2.69767        0.19711
H          4.46785       -2.83990        0.47241
H          2.83892       -3.43969        0.38769
N          1.94281       -1.46086       -0.06436
C          0.89305       -0.60999       -0.03268
C         -0.40071       -1.14074       -0.06789
H         -0.56258       -2.21461       -0.13143
H          4.94821       -0.42909       -0.28723
H          0.07449        2.71337        0.16511
