28
Coordinates from ORCA-job ./opt_b97-3c_parallel
N         -4.21391       -2.61063       -0.63388
C         -3.68163       -1.62549       -0.40700
C         -2.96887       -0.41825       -0.12496
C         -1.54655       -0.28761        0.00630
C         -1.52177        1.13965        0.18447
N         -2.61554        1.27016        0.21657
C         -3.62096        0.84036        0.07312
N         -4.53292        1.45549        0.12873
H         -5.06508        2.29977        0.33135
H         -5.20890        0.70880       -0.02132
C         -0.21277        1.73700        0.24181
C          0.93641        0.85890        0.13150
C          2.25327        1.55886        0.05201
C          3.49781        1.01398       -0.08122
N          4.08681       -0.23920       -0.08797
C          3.16630       -1.26604        0.03033
N          3.63099       -2.26419        0.07263
H          4.64444       -2.30994        0.17125
H          3.27633       -3.18575        0.32496
N          1.87272       -1.31992        0.08226
C          0.82352       -0.53847        0.10488
C         -0.44983       -1.20622        0.09462
H         -0.57377       -2.28417        0.04653
N          4.48371        1.47487       -0.25707
H          4.22263        2.43976       -0.45744
H          5.45334        1.37706       -0.55599
H          2.14461        2.64079        0.10691
H         -0.14789        2.81146        0.38737
