25
Coordinates from ORCA-job ./opt_b97-3c_parallel
N         -0.93639       -3.69626        0.02691
C         -1.05097       -2.56107        0.02904
C         -1.15019       -1.12695        0.01913
C         -2.51506       -0.61981        0.02630
N         -2.93890        0.65718       -0.07327
C         -2.16072        1.74073       -0.05258
N         -2.97182        2.48308       -0.19428
H         -3.99135        2.40414       -0.19414
H         -2.79207        3.47604       -0.35564
C         -0.85319        2.01284        0.17494
C          0.11201        1.05819        0.04261
N          1.31856        1.68418        0.04510
C          2.48086        0.90741       -0.00693
C          2.35071       -0.50290       -0.08033
N          3.65400       -0.96362       -0.10873
C          4.52097        0.04268       -0.05386
C          3.80687        1.16296        0.00639
H          4.23923        2.15954        0.07066
H          5.59601       -0.19779       -0.06292
N          1.17598       -1.04245       -0.10192
C          0.04977       -0.39409       -0.02300
H         -0.59567        2.98610        0.59948
N         -3.58627       -0.89032        0.03754
H         -3.37832       -1.88775        0.09435
H         -4.59358       -0.81410        0.18124
