23
Coordinates from ORCA-job ./opt_b97-3c_parallel
N          3.06422        2.67225       -0.58790
C          3.18904        1.92983        0.27239
C          2.45063        0.70647        0.16107
C          1.10962        0.46168        0.11127
C          0.93264       -0.95603       -0.04227
N          2.04607       -0.87533        0.00860
C          3.11191       -0.55676        0.06488
N          3.93259       -1.28898        0.01732
H          4.72560       -0.69428       -0.21931
H          4.31623       -2.20072        0.26144
C         -0.33608       -1.47195       -0.16794
C         -0.38799       -2.57055       -0.29312
N         -0.67795       -3.56031        0.20129
C         -1.37320       -0.62186       -0.13681
N         -2.68924       -0.68000       -0.22673
C         -3.92678       -0.15998       -0.23406
N         -4.15526        1.19752       -0.04569
C         -3.02553        1.97972        0.12699
N         -1.64447        1.99593        0.19328
C         -1.12336        0.72209        0.04319
N          0.06614        1.24195        0.15323
H         -3.73515        2.81726        0.21705
H         -4.82801       -0.77743       -0.37797
