26
Coordinates from ORCA-job ./opt_b97-3c_parallel
N          0.61826        3.81715        0.44401
C          0.87209        2.70841        0.34315
C          1.24295        1.32505        0.20854
C          2.66961        1.08896        0.06139
N          3.29152       -0.08140       -0.19071
C          2.72270       -1.28547       -0.10212
N          3.59662       -1.89431       -0.39888
H          3.47319       -2.84500       -0.74818
H          4.60394       -1.73271       -0.37639
C          1.57753       -1.79485        0.40768
C          0.45244       -1.08468        0.12015
N         -0.29981       -1.91732        0.02985
C         -1.61121       -1.55486       -0.04019
N         -2.67122       -2.36511       -0.12496
C         -3.21068       -1.38573       -0.12394
C         -3.39589       -0.02210       -0.10382
C         -4.09217        0.83226       -0.12562
N         -4.27638        1.81635       -0.67741
C         -1.93194       -0.21200       -0.02413
N         -0.87389        0.63492        0.05572
C          0.22232        0.36878        0.11284
H         -4.19615       -1.86629       -0.01197
H          1.62776       -2.41685        1.30586
N          3.68529        1.51993       -0.00044
H          3.19774        2.41569       -0.01593
H          4.67632        1.74127        0.08871
