26
Coordinates from ORCA-job ./opt_b97-3c_parallel
N         -3.48267       -3.03670        0.03439
C         -3.07896       -1.96819        0.08438
C         -2.54571       -0.63854        0.11916
C         -3.52208        0.42503       -0.06990
N         -3.33080        1.75645       -0.06072
C         -2.16064        2.34854        0.16005
N         -0.97188        1.94629        0.41058
C         -0.37868        0.80767        0.30464
C          1.01446        0.77656        0.24384
C          1.81841        1.97031        0.25954
N          2.36926        2.91078       -0.08514
C          1.74232       -0.40404        0.12053
C          1.12100       -1.69322        0.12089
N          2.17824       -2.01861        0.00387
C          3.28649       -1.97921       -0.11081
C          3.09003       -0.56706       -0.02681
C          4.42421       -0.05645       -0.15178
N          5.16446        0.48468       -0.83393
H          3.95539       -2.84594       -0.22199
C         -0.29792       -1.63730        0.28884
C         -1.10121       -0.44463        0.24267
H         -0.33089       -2.58138        0.82919
H         -2.20115        3.44826        0.16159
N         -4.57203        0.72180       -0.24117
H         -5.10292        1.32601       -0.86590
H         -4.58981       -0.20989       -0.65084
