31
Coordinates from ORCA-job ./opt_b97-3c_parallel
N          5.43573       -0.00274        0.02228
C          4.29172       -0.00273        0.02529
C          2.82655       -0.00271        0.01437
C          2.21123        1.26638        0.06794
N          3.07931        2.34659        0.15173
H          4.08051        2.19980        0.07229
H          2.71848        3.29319        0.08760
C          0.83093        1.57875        0.04444
C          0.52725        3.01436        0.05385
N          0.30696        4.13682        0.05174
C         -0.29279        0.71188        0.00964
N         -1.50428        1.35991        0.02432
C         -2.65723        0.67894       -0.00200
C         -2.65743       -0.68191       -0.04988
N         -1.50447       -1.36344       -0.05987
C         -0.29299       -0.71588       -0.02780
C          0.83129       -1.58328       -0.04652
C          0.52674       -3.01883       -0.06205
N          0.30583       -4.14118       -0.06505
C          2.21163       -1.27145       -0.04847
N          3.08052       -2.35204       -0.11850
H          4.08137       -2.20602       -0.03405
H          2.71839       -3.29911       -0.07119
C         -3.92256       -1.34805       -0.08839
C         -4.44666       -0.00136       -0.02018
N         -5.81245       -0.00138        0.05517
H         -6.31270        0.87555       -0.04390
H         -6.31654       -0.86465       -0.11736
C         -3.92201        1.34611        0.02318
H         -4.22437        2.15460       -0.63476
H         -4.20095       -2.17758        0.55393
