26
Coordinates from ORCA-job ./opt_b97-3c_parallel
N         -2.85069       -3.17592        0.12487
C         -2.47527       -2.09607        0.13717
C         -2.01340       -0.73843        0.11496
C         -3.05778        0.26549       -0.03198
N         -2.93839        1.60370       -0.09145
C         -1.79189        2.26421        0.04238
N         -0.57474        1.94961        0.28141
C          0.06461        0.83592        0.18773
C          1.45210        0.95004        0.12402
C          2.25380        2.14274        0.12680
N          2.86815        3.06219       -0.16226
C          2.28436       -0.23000       -0.00722
C          1.70267       -1.51996       -0.00711
C          2.70424       -2.42812       -0.11191
C          3.83496       -1.72766       -0.18581
C          3.62884       -0.41162       -0.12873
H          4.39300        0.36115       -0.17416
H          4.81916       -2.17970       -0.28362
H          2.60380       -3.51068       -0.13645
C          0.29197       -1.60771        0.19890
C         -0.57764       -0.46182        0.16116
H          0.25826       -2.44358        0.89506
H         -1.93480        3.35296       -0.02768
N         -4.12808        0.51197       -0.14356
H         -4.18732       -0.45556       -0.45425
H         -4.74723        1.05316       -0.74385
