29
Coordinates from ORCA-job ./opt_b97-3c_parallel
N         -5.18571       -1.63347       -0.99042
C         -4.17230       -1.21578       -0.66666
C         -2.89657       -0.66936       -0.24879
C         -1.94466       -1.69768        0.05050
N         -0.86688       -1.57044       -0.02051
C          0.11375       -0.66519        0.01303
C          1.41388       -1.17294       -0.09720
C          2.47687       -0.29464       -0.01958
C          2.31288        1.03170        0.18684
N          3.48579        1.69596        0.23001
C          4.25255        0.88470        0.06410
C          3.86708       -0.49834       -0.11980
C          4.88047       -1.47608       -0.35359
N          5.22503       -2.45161       -0.83925
H          5.23958        1.33212        0.05918
C          1.03105        1.55506        0.30323
C         -0.11702        0.72654        0.18444
C         -1.41383        1.33146        0.18569
C         -1.48032        2.76729        0.41596
N         -1.54570        3.89477        0.59068
C         -2.66410        0.71159       -0.10749
N         -3.76663        1.51776       -0.30148
H         -3.62045        2.51424       -0.42706
H         -4.59816        1.10824       -0.71424
H          0.97014        2.62924        0.45040
H          1.59129       -2.23710       -0.23964
N         -2.21274       -2.83929        0.75473
H         -1.48919       -3.54337        0.84643
H         -3.17554       -3.14909        0.83850
