24
Coordinates from ORCA-job ./opt_b97-3c_parallel
N         -1.99163       -3.19095        0.43760
C         -1.75292       -2.07900        0.31775
C         -1.44417       -0.67438        0.14968
C         -2.62281        0.16132        0.05863
N         -2.90944        1.22485        0.11752
C         -2.17733        2.04936        0.15745
C         -0.76096        2.23270        0.00398
C          0.19732        1.21333       -0.00636
N          1.48307        1.64944       -0.09417
C          2.43772        0.70688       -0.07148
C          2.24607       -0.62749        0.03782
N          3.40666       -1.31818        0.04105
C          4.22367       -0.54198       -0.05257
C          3.83369        0.84840       -0.13949
H          4.46307        1.72629       -0.24084
H          5.21356       -0.98186       -0.06692
C          0.94559       -1.10006        0.12298
C         -0.12286       -0.17702        0.09127
H          0.79111       -2.17271        0.20095
H         -0.46700        3.27823       -0.06155
H         -2.94046        2.80457        0.30737
N         -3.84885       -0.25562       -0.39347
H         -4.03261       -1.24994       -0.47551
H         -4.64808        0.36381       -0.31745
