27
Coordinates from ORCA-job ./opt_b97-3c_parallel
N         -2.74854       -3.29195       -0.02358
C         -2.61507       -2.15870        0.02825
C         -2.46413       -0.73139        0.05506
C         -3.68658        0.01685       -0.04424
N         -3.84477        1.34031        0.05281
C         -2.94463        2.31718        0.18714
N         -1.56954        2.30760        0.15128
C         -0.82034        1.19670        0.08818
N          0.38687        1.66984        0.07618
C          1.41673        0.88470        0.07123
C          1.17422       -0.51302        0.14762
N         -0.10008       -1.07128        0.16525
C         -1.16996       -0.22279        0.11529
C          2.39783       -1.24661        0.15421
C          2.42362       -2.67505        0.24122
N          2.42167       -3.81313        0.34003
C          3.39150       -0.29594        0.05780
N          4.47988       -0.48430        0.01886
H          4.84215       -1.42364        0.18317
H          5.24901        0.05126       -0.38362
C          2.78704        1.01346        0.00065
C          3.36057        2.32044       -0.12685
N          3.25226        2.94233       -1.08011
H         -3.69254        3.12378        0.24058
N         -4.78306        0.08987       -0.13430
H         -4.81909       -0.88318       -0.43623
H         -5.70210        0.48295       -0.33575
