25
Coordinates from ORCA-job ./opt_b97-3c_parallel
N          4.16129        2.34251        0.73409
C          3.61031        1.49959        0.19404
C          2.77324        0.34874        0.05860
C          1.36358        0.28757        0.00725
C          1.03450       -1.02897       -0.12296
N          2.14841       -1.79081       -0.16001
C          3.00968       -1.07282       -0.06841
N          4.27549       -1.58417       -0.08308
H          5.07511       -0.96121       -0.11522
H          4.41910       -2.56460       -0.29732
N         -0.25680       -1.41796       -0.19625
C         -1.24345       -0.48234       -0.14672
N         -2.53532       -0.87988       -0.20149
C         -3.52509       -0.37894       -0.17157
N         -4.51113       -1.24212        0.20031
H         -5.40210       -0.87321        0.51130
H         -4.26458       -2.18588        0.47555
N         -3.83865        0.68732       -0.17125
C         -3.32718        1.67212       -0.10785
C         -1.90533        1.91029       -0.00030
C         -0.93013        0.89978       -0.02981
C          0.40870        1.29091        0.05589
H          0.69571        2.33533        0.15217
H         -1.62732        2.95751        0.09233
H         -4.06487        2.23020       -0.67241
