34
Coordinates from ORCA-job ./opt_b97-3c_parallel
N         -6.11715       -0.94685       -0.56934
C         -5.02571       -0.65550       -0.39317
C         -3.64698       -0.27318       -0.15709
C         -2.81057       -1.41728        0.05203
N         -1.72658       -1.38208       -0.00104
C         -0.60732       -0.64996       -0.01281
C         -0.66157        0.76136        0.05574
C          0.58111        1.43172        0.13450
C          1.79693        0.75490        0.09429
C          1.82936       -0.61625       -0.03199
C          3.13178       -1.22614       -0.11138
C          3.81840       -2.32466       -0.72260
N          4.65093       -3.10549       -0.67861
C          3.61817        0.12693        0.04257
N          4.97686        0.29766        0.10222
H          5.57889       -0.48072       -0.14717
H          5.35795        1.23622        0.04038
C          3.05229        1.44983        0.16974
C          3.37674        2.78794        0.56330
N          3.74594        3.86864        0.59808
C          0.62803       -1.32981       -0.06812
C          0.66510       -2.77645       -0.15400
N          0.69468       -3.91625       -0.23467
H          0.64805        2.51223        0.21643
C         -1.87209        1.52945        0.02020
C         -1.73831        2.97801        0.08833
N         -1.63896        4.11643        0.12826
C         -3.21459        1.06691       -0.13653
N         -4.21688        2.00275       -0.29715
H         -3.96012        2.96528       -0.49115
H         -5.13461        1.68779       -0.59477
N         -3.13585       -2.51613        0.79851
H         -4.11587       -2.73661        0.94238
H         -2.47629       -3.28452        0.85489
