27
Coordinates from ORCA-job ./opt_b97-3c_parallel
N          5.33604        0.21456        0.07412
C          4.20137        0.09349        0.04880
C          2.76821       -0.07771        0.02404
C          1.93714        1.10622       -0.00725
N          0.83326        1.13218       -0.02912
C         -0.25451        0.32340       -0.02411
C         -0.09329       -1.08611        0.01244
N          1.13096       -1.66433        0.02165
C          2.20986       -1.41383        0.01071
N          2.97358       -2.54797       -0.04172
H          2.54531       -3.45354       -0.19361
H          3.97812       -2.46526       -0.16366
C         -1.22273       -1.91120        0.03814
C         -2.47146       -1.31063        0.02335
C         -3.77319       -1.84629        0.04474
C         -4.55391       -0.63047        0.00520
N         -3.97813        0.34022       -0.03088
C         -2.65957        0.03261       -0.02172
C         -1.55159        0.88216       -0.04913
C         -1.75352        2.31341       -0.10029
N         -1.90191        3.44596       -0.14912
H         -5.63037       -0.50171        0.00934
H         -4.12529       -2.87174        0.08981
H         -1.12908       -2.99425        0.07003
N          2.41526        2.38366        0.09368
H          1.78895        3.17886        0.04565
H          3.41661        2.54990        0.11199
