24
Coordinates from ORCA-job ./opt_b97-3c_parallel
N         -3.91742       -2.16619       -0.37085
C         -3.21876       -1.27357       -0.22580
C         -2.36726       -0.13208       -0.07394
C         -2.94861        1.17514       -0.05445
N         -1.91323        1.56202        0.01719
C         -0.80647        1.52067        0.04966
C         -0.95354        0.09292        0.03945
C          0.08921       -0.83231        0.13580
C         -0.21077       -2.24861        0.15790
N         -0.45230       -3.36593        0.16525
C          1.41386       -0.36375        0.19981
N          2.39092       -1.30489        0.32208
C          3.71112       -1.05839        0.15134
N          4.40442        0.04965       -0.31684
C          3.79602        1.27509       -0.22550
N          2.72968        1.63202        0.39603
C          1.60182        1.02794        0.16669
C          0.54386        2.01107        0.07933
H          0.70334        3.08583        0.07104
H          4.69538        1.70467       -0.69163
H          3.94465       -2.12757        0.26786
N         -3.77419        1.90502       -0.08445
H         -4.44108        1.13771       -0.02917
H         -4.21830        2.71748        0.33766
