31
Coordinates from ORCA-job ./opt_b97-3c_parallel
N         -5.59820       -1.07519       -0.25822
C         -4.48249       -0.83048       -0.20909
C         -3.07115       -0.50713       -0.13327
C         -2.28895       -1.70247       -0.18237
N         -1.20701       -1.71646       -0.26555
C         -0.06914       -1.02270       -0.21977
C          1.08993       -1.80088       -0.33897
C          2.33286       -1.21578       -0.20298
N          3.54874       -1.80192       -0.25383
C          4.29350       -0.98598       -0.02768
N          5.63587       -1.22264       -0.02243
H          6.28562       -0.44749        0.04679
H          5.98735       -2.11198       -0.35948
C          3.77775        0.33230        0.25985
C          2.39494        0.09932        0.09722
C          1.28418        0.92682        0.23223
C          1.58373        2.22893        0.78970
N          1.84439        3.24307        1.24835
C         -0.01968        0.38685       -0.02441
C         -1.19687        1.20999       -0.12734
C         -1.01703        2.63040       -0.38928
N         -0.90379        3.74455       -0.62168
C         -2.57048        0.80741       -0.16762
N         -3.54573        1.78408       -0.23534
H         -4.50273        1.50940       -0.43243
H         -3.27181        2.73947       -0.44214
H          4.32872        1.23766        0.49343
H          1.01984       -2.87329       -0.51308
N         -2.44648       -2.77278        0.65475
H         -1.79129       -3.54399        0.59256
H         -3.37400       -2.98334        1.00767
