26
Coordinates from ORCA-job ./opt_b97-3c_parallel
N         -1.93140       -3.42459       -0.28054
C         -1.88943       -2.28655       -0.18682
C         -1.79270       -0.86169       -0.06243
C         -3.02733       -0.13417       -0.15616
N         -3.20045        1.18525       -0.01374
C         -2.32234        2.17306        0.19813
N         -0.94485        2.19938        0.26873
C         -0.16854        1.10781        0.21155
N          1.06426        1.50262        0.29663
C          2.10138        0.73824        0.12426
C          1.96959       -0.67658        0.05601
C          3.10968       -1.39356       -0.12171
C          3.72933       -0.16578       -0.12567
N          4.82315       -0.28352       -0.26543
H          5.28557       -1.16780       -0.05499
H          5.54692        0.32906       -0.64037
C          3.38399        1.16216       -0.02689
H          3.64249        1.87539       -0.80974
H          3.38839       -2.17152        0.58930
C          0.61522       -1.16354        0.15648
C         -0.54140       -0.28713        0.10702
H          0.73238       -1.95169        0.89886
H         -2.98966        3.04756        0.25042
N         -4.12140       -0.10951       -0.28648
H         -5.06034        0.21470       -0.51515
H         -4.09424       -1.09821       -0.53111
