27
Coordinates from ORCA-job ./opt_b97-3c_parallel
N         -5.47026       -0.62126       -0.39103
C         -4.36358       -0.53458       -0.66345
C         -3.34700       -0.27818       -0.29273
C         -2.37380       -1.21324       -0.01111
N         -1.28062       -1.01022       -0.12087
C         -0.44691       -0.26591       -0.05488
C         -0.61701        1.18024        0.09582
N         -1.85363        1.74108        0.03806
C         -2.99656        1.04503       -0.14998
N         -3.27304        2.12132       -0.13837
H         -3.33269        3.12388       -0.31914
H         -4.19280        1.74538       -0.37171
N          0.45278        2.03705        0.32788
C          1.72705        1.50788        0.31583
N          2.80567        2.30714        0.59631
C          3.89302        1.50575        0.36932
C          3.43758        0.22465       -0.07620
C          4.35855       -0.77837       -0.49837
N          5.08792       -1.57171       -0.87400
C          1.99239        0.15462       -0.06519
C          0.90969       -0.79040       -0.09678
C          1.27030       -2.16621       -0.27029
N          1.58171       -3.25164       -0.43626
H          4.94453        1.82087        0.46470
N         -2.30571       -2.15458        0.57456
H         -1.85471       -3.06726        0.63827
H         -3.27962       -2.30592        0.83845
