26
Coordinates from ORCA-job ./opt_b97-3c_parallel
N         -4.06929       -2.72387        0.00188
C         -3.33414       -1.84927        0.00230
C         -2.54042       -0.66078        0.00307
C         -1.13370       -0.55339        0.00284
C         -0.86064        0.77717        0.00341
N         -1.99190        1.51958        0.00415
C         -2.82272        0.75871        0.00395
N         -4.10996        1.21222        0.00430
H         -4.88572        0.55853        0.00442
H         -4.30617        2.20688        0.00536
C          0.46980        1.20371        0.00314
C          0.75549        2.62256        0.00352
N          0.96992        3.74608        0.00194
C          1.50657        0.24279        0.00219
N          2.78679        0.64990        0.00165
C          3.84214        0.36073        0.00086
C          4.32646       -0.98668       -0.00072
C          3.52706       -2.12821       -0.00063
C          2.12804       -2.18720        0.00055
C          1.19113       -1.13788        0.00160
C         -0.15304       -1.53108        0.00189
H         -0.43448       -2.58192        0.00150
H          1.72351       -3.19716        0.00032
H          4.05006       -3.08170       -0.00149
H          5.40984       -1.07994       -0.00133
H          4.40964        1.28381        0.00040
