27
Coordinates from ORCA-job ./opt_b97-3c_parallel
N          2.97562        3.06071       -0.35179
C          2.68021        1.95980       -0.26365
C          2.29322        0.56980       -0.13930
C          3.42385       -0.33103       -0.06760
N          3.65010       -1.40471       -0.17859
C          2.87574       -2.18888       -0.23683
C          1.45097       -2.29749       -0.09384
C          0.55020       -1.22792       -0.05423
N         -0.75776       -1.59891        0.01072
C         -1.70018       -0.63892        0.01168
C         -1.38665        0.68978       -0.05481
C         -2.55931        1.39286       -0.04649
C         -2.71108        2.82313       -0.10523
N         -2.81894        3.95946       -0.15605
C         -3.58412        0.46181        0.02445
C         -3.12107       -0.92026        0.06966
C         -4.00399       -2.00196        0.36589
N         -4.69535       -2.91141        0.39859
H         -4.62103        0.79019        0.04071
C         -0.07056        1.11881       -0.11394
C          0.94700        0.14344       -0.10500
H          0.13690        2.18490       -0.15556
H          1.10057       -3.32715       -0.05460
H          3.59426       -2.97711       -0.43058
N          4.64269       -0.01827        0.47777
H          5.40825       -0.67924        0.40401
H          4.87634        0.95461        0.64393
