28
Coordinates from ORCA-job ./opt_b97-3c_parallel
N          5.64225       -0.10839        0.05178
C          4.50363       -0.02714        0.04572
C          3.07482        0.01460        0.03352
C          2.42662       -1.21729        0.00767
N          1.13708       -1.64262        0.01399
C          0.01435       -0.80161        0.01402
C         -1.26145       -1.46775        0.02419
C         -2.35388       -0.64284       -0.02166
C         -3.70128       -1.07656       -0.03812
C         -4.50857        0.00993       -0.11962
N         -5.84502        0.05728       -0.20433
H         -6.42451       -0.69378        0.17026
H         -6.35254        0.93507       -0.09648
C         -3.70522        1.07398       -0.13982
C         -2.38105        0.72354       -0.07624
N         -1.16170        1.39030       -0.05992
C          0.02024        0.64883       -0.01094
N          1.09204        1.36381        0.00399
C          2.37624        1.27071        0.05383
N          2.49871        2.36697        0.08505
H          3.51005        2.45358        0.19344
H          2.13879        3.32160        0.12317
H         -4.05802        2.10082       -0.22176
H         -4.02701       -2.11243       -0.00570
H         -1.32501       -2.55212        0.05225
N          2.66152       -2.30473       -0.01498
H          3.67915       -2.32309       -0.13165
H          2.40533       -3.29477        0.03254
