29
Coordinates from ORCA-job ./opt_b97-3c_parallel
N          4.42791        3.16578        0.00085
C          3.53964        2.44718        0.00699
C          2.81396        1.21611        0.00219
C          1.42740        0.85150        0.00246
C          1.11317       -0.48787        0.00654
N         -0.16049       -0.93278        0.00847
C         -1.21218       -0.06151        0.00564
C         -2.52551       -0.61488        0.01226
C         -2.61653       -2.06917        0.01845
N         -2.70276       -3.20938        0.02099
C         -3.76749        0.07749        0.01576
N         -4.94387       -0.63278        0.03657
H         -4.92379       -1.64654       -0.01423
H         -5.83326       -0.15007       -0.02563
C         -3.96118        1.46083        0.00424
C         -2.95829        2.47759       -0.01297
N         -1.89064        2.26180       -0.00827
C         -0.93788        1.32573       -0.00092
C          0.38757        1.77353       -0.00154
H          0.60504        2.83958       -0.00560
H         -3.08819        3.55323       -0.01253
H         -4.96056        1.89173        0.00749
C          2.19632       -1.42797        0.00985
C          2.16740       -2.85772        0.01002
N          2.71299       -3.86191        0.00888
C          2.99097       -0.21927        0.00701
N          4.30368       -0.61322        0.01140
H          4.53851       -1.60110        0.01144
H          5.04752        0.07702        0.00794
