26
Coordinates from ORCA-job ./opt_b97-3c_parallel
N         -5.17090       -0.86834        0.04347
C         -4.06959       -0.57175        0.02217
C         -2.65654       -0.26376       -0.00567
C         -2.01527       -1.48611       -0.02873
N         -0.73584       -1.88653       -0.02099
C          0.36536       -1.03535       -0.02390
C          1.62066       -1.76963        0.02664
C          2.83440       -0.99541        0.02336
N          4.10028       -1.50074        0.08562
C          4.91977       -0.38053        0.05195
N          4.13709        0.77004       -0.03131
C          2.80543        0.41129       -0.05049
N          1.63503        0.95688       -0.11238
C          0.43979        0.42301       -0.07573
C         -0.65566        1.29945       -0.06790
C         -0.36046        2.72201       -0.11140
N          0.21453        3.69615       -0.27470
C         -2.03369        1.05401       -0.01078
N         -2.85264        1.81139        0.02679
H         -3.86068        1.76168        0.18199
H         -2.62606        2.80625        0.04646
H          6.01669       -0.27344        0.07940
H          1.65235       -2.85554        0.07873
N         -2.09403       -2.59834       -0.03986
H         -1.90185       -3.60252       -0.01714
H         -3.11367       -2.54793       -0.12015
