28
Coordinates from ORCA-job ./opt_b97-3c_parallel
N         -4.88659       -0.97380       -0.03316
C         -3.74442       -0.94057        0.00661
C         -2.70030        0.03943        0.01260
C         -3.09427        1.36150        0.01047
N         -3.93642        2.08466        0.00576
H         -4.77513        1.49690       -0.00992
H         -4.28548        3.04507        0.01371
N         -1.98051        2.15812        0.01315
C         -0.93382        1.26733        0.01739
N          0.33942        1.49602        0.01542
C          1.38163        0.72199        0.00790
C          2.66997        1.35031       -0.00422
C          3.84528        0.68053       -0.00757
N          4.88354        1.52316        0.13103
H          5.83491        1.19908       -0.04242
H          4.82322        2.48773       -0.19113
C          4.31783       -0.58700       -0.00762
C          3.49034       -1.74950        0.00164
C          2.10801       -1.76989        0.01096
C          1.16160       -0.65934        0.01373
C         -0.21112       -1.14871        0.02675
C         -0.86902       -2.41867        0.04546
N         -1.46252       -3.38653       -0.07478
C         -1.25617       -0.13801        0.02080
H          1.68946       -2.77140        0.01509
H          4.02667       -2.69439        0.00061
H          5.38737       -0.79299       -0.01663
H          2.66388        2.43904       -0.00564
