29
Coordinates from ORCA-job ./opt_b97-3c_parallel
N         -2.34435       -3.58400       -0.23331
C         -2.26550       -2.44646       -0.18580
C         -2.13915       -1.02034       -0.09601
C         -3.38767       -0.28971       -0.20000
N         -3.56589        1.07812       -0.09615
C         -2.43823        1.83417        0.06076
N         -1.08767        2.00837        0.17141
C         -0.36216        0.87740        0.14333
N          0.89651        1.17735        0.23132
C          1.88759        0.34245        0.11819
C          1.65873       -1.07450        0.12261
C          2.73008       -1.92174        0.01198
C          3.65887       -0.92029       -0.10200
N          4.67963       -1.31823       -0.24102
H          5.10770       -2.19222        0.06489
H          5.43377       -0.76190       -0.64379
C          3.23839        0.44672       -0.05698
C          3.93662        1.69016       -0.18407
N          3.67242        2.39753       -1.04306
H          2.86097       -2.74185        0.71677
C          0.26123       -1.43678        0.17113
C         -0.84542       -0.49877        0.06545
H          0.31825       -2.21470        0.93238
N         -2.89374        2.83920        0.14745
H         -3.90486        2.97322        0.21474
H         -2.49770        3.76757        0.30391
N         -4.48421       -0.27857       -0.32374
H         -4.49803       -1.29696       -0.39239
H         -5.41381        0.02867       -0.61187
