24
Coordinates from ORCA-job ./opt_b97-3c_parallel
N          3.73123        2.94961       -0.01412
C          3.19180        1.94328       -0.01576
C          2.56440        0.66024       -0.00789
C          1.15323        0.48059       -0.00542
C          0.91966       -0.89179        0.01322
N          2.09707       -1.62029        0.01890
C          3.02560       -0.64088        0.00453
N          3.99199       -1.18082        0.00798
H          4.83991       -0.62471        0.12704
H          4.30709       -2.13801       -0.15347
C         -0.41827       -1.37970        0.03054
C         -0.61034       -2.80153        0.05614
N         -0.71336       -3.93918        0.07566
C         -1.44093       -0.42796        0.02218
N         -2.69384       -0.92076        0.04650
C         -3.72225       -0.03735        0.03342
N         -4.33470        1.16747        0.00554
C         -3.44667        2.21143       -0.03413
C         -2.00345        2.12481       -0.03652
C         -1.12580        1.03459       -0.01051
N          0.17147        1.43824       -0.01935
H         -1.55976        3.11699       -0.06535
H         -4.06410        3.12215       -0.05743
H         -4.69535       -0.55206        0.06097
