28
Coordinates from ORCA-job ./opt_b97-3c_parallel
N         -5.23779       -0.19451       -0.01069
C         -4.09548       -0.14137       -0.01048
C         -2.62898       -0.03409        0.00002
C         -1.95459       -1.27145       -0.03510
C         -0.51053       -1.55356        0.06678
C         -0.11636       -2.96987        0.14406
N          0.03031       -4.10427        0.13271
C          0.54805       -0.62460        0.07323
N          1.58343       -1.04269        0.13856
C          2.84697       -0.62078        0.08619
C          3.00616        0.72055       -0.08740
N          4.30209        0.99809       -0.12163
C          4.79793       -0.23895        0.03880
N          3.98568       -1.25076        0.17238
H          5.89652       -0.17633        0.03976
C          1.81916        1.53111       -0.16540
C          0.50430        0.84321       -0.04619
C         -0.64839        1.63701       -0.02778
C         -0.40751        3.07271       -0.05688
N         -0.33310        4.21453       -0.06324
C         -2.00843        1.29651        0.05200
N         -2.79330        2.09549        0.12533
H         -3.80130        2.01957        0.25275
H         -2.56585        3.08234        0.23637
H          1.93193        2.60018       -0.29845
N         -2.57006       -2.20853       -0.11506
H         -3.58025       -2.24057       -0.24506
H         -2.24481       -3.17079       -0.20016
