24
Coordinates from ORCA-job ./opt_b97-3c_parallel
N          3.90637        2.48936        0.00078
C          3.06464        1.71577        0.00134
C          2.37607        0.46354        0.00098
C          0.98264        0.24731        0.00075
C          0.82330       -1.10115        0.00064
N          1.99363       -1.77414        0.00071
C          2.75007       -0.93710        0.00090
N          4.06257       -1.31357        0.00121
H          4.79832       -0.61520       -0.00091
H          4.31660       -2.29496       -0.00109
C         -0.47037       -1.60494        0.00044
C         -1.54425       -0.70308        0.00041
N         -2.78493       -1.20951        0.00043
C         -3.85010       -0.95885        0.00049
C         -4.40975        0.35856        0.00033
C         -3.67389        1.54208        0.00042
C         -2.28033        1.67885        0.00038
C         -1.28157        0.69065        0.00049
N         -0.00535        1.16096        0.00065
H         -1.92794        2.70870        0.00046
H         -4.24796        2.46552        0.00020
H         -5.49644        0.39255        0.00029
H         -4.36538       -1.91181       -0.00089
H         -0.64272       -2.67883        0.00034
