28
Coordinates from ORCA-job ./opt_b97-3c_parallel
N         -4.04163       -2.25529       -0.75157
C         -4.09409       -1.52400        0.12569
C         -3.12402       -0.46968        0.07976
C         -1.77595       -0.38143        0.20824
N         -0.94340       -1.46598        0.45083
C          0.42399       -1.21062        0.41224
N          1.06066       -2.32188        0.49808
C          2.30835       -2.60106        0.51563
C          3.47431       -1.95870        0.22803
C          3.44418       -0.55771       -0.17454
N          4.52661       -0.44539       -0.40127
H          5.39599       -0.96895       -0.50401
H          4.74280        0.50613       -0.69981
C          2.35118        0.33108       -0.19784
C          2.78079        1.63713       -0.62866
N          3.08373        2.68022       -0.98088
C          0.93769        0.12039        0.14297
C          0.06049        1.18449        0.18188
C          0.10278        1.94513        0.99313
N          0.47993        2.37246        1.98619
C         -1.28051        0.94476        0.03764
N         -2.39789        0.99371       -0.09503
C         -3.51136        0.88289       -0.16039
N         -4.21210        1.71042       -0.35235
H         -4.50706        2.61429        0.01446
H         -5.06261        1.20370       -0.59386
H          4.39625       -2.54740        0.28991
H          2.50467       -3.64875        0.79261
