27
Coordinates from ORCA-job ./opt_b97-3c_parallel
N          4.62155        1.67577       -0.03571
C          3.49294        1.57765        0.12022
C          2.75878        0.35011        0.06032
C          1.32420        0.25876        0.02422
C          1.07709       -1.15085       -0.04249
N          2.25155       -1.87075       -0.04001
C          3.26931       -0.93387        0.02339
N          4.22667       -1.49231        0.02278
H          4.95909       -0.77758        0.00442
H          4.72173       -2.38601        0.03339
N         -0.21200       -1.32329       -0.08796
C         -1.26374       -0.55216       -0.06475
C         -2.55789       -1.16373       -0.11383
C         -3.71892       -0.47241       -0.04565
N         -4.73009       -1.28941        0.29589
H         -4.71950       -2.27092        0.02245
H         -5.69463       -0.96562        0.22720
C         -4.17238        0.80139       -0.10754
C         -3.33404        1.95820       -0.05887
C         -1.95248        1.95930        0.01338
C         -1.03855        0.82852        0.00943
C          0.34942        1.25452        0.05667
H          0.65464        2.29869        0.10982
H         -1.49705        2.94491        0.05744
H         -3.85984        2.90842       -0.07962
H         -5.23796        1.01263       -0.17944
H         -2.56793       -2.24981       -0.18591
