33
Coordinates from ORCA-job ./opt_b97-3c_parallel
N         -6.07910       -1.01989        0.49940
C         -4.97658       -0.75579        0.35226
C         -3.58286       -0.40850        0.15037
C         -2.75663       -1.56695       -0.02029
N         -1.67122       -1.60442        0.02662
C         -0.56430       -0.85812        0.02410
C          0.64360       -1.56108        0.06675
C          1.86219       -0.89662        0.02467
C          1.87776        0.47559       -0.08502
C          3.15932        1.11998       -0.15462
C          3.56283        2.40075       -0.64934
N          4.01110        3.45228       -0.64848
C          3.64137       -0.23160        0.01070
N          5.00281       -0.17415        0.15858
H          5.53677       -1.03594        0.13394
H          5.48205        0.69674       -0.04345
C          3.12283       -1.57829        0.08420
C          3.49901       -2.84463        0.63267
N          4.15801       -3.77790        0.64423
C          0.68252        1.18997       -0.11440
C         -0.58240        0.55411       -0.04105
C         -1.76994        1.35333       -0.00996
C         -1.59731        2.79770       -0.07284
N         -1.46983        3.93400       -0.11014
C         -3.12389        0.92186        0.12644
N         -4.10755        1.88164        0.25924
H         -5.03784        1.59062        0.54134
H         -3.83229        2.84005        0.44811
H          0.78275        2.26899       -0.18608
H          0.63045       -2.64791        0.12839
N         -3.10632       -2.69481       -0.71177
H         -2.46252       -3.47734       -0.73710
H         -4.08996       -2.89635       -0.85540
