25
Coordinates from ORCA-job ./opt_b97-3c_parallel
N         -3.80871       -2.55597       -0.00833
C         -3.02920       -1.71932       -0.00690
C         -2.36015       -0.45595       -0.00689
C         -0.97496       -0.20689       -0.00502
C         -0.84426        1.13927       -0.00520
N         -2.03494        1.77737       -0.00727
C         -2.78460        0.93091       -0.00793
N         -4.11824        1.22873       -0.00904
H         -4.43740        2.19105       -0.01321
H         -4.80660        0.48419       -0.01271
C          0.44182        1.66549       -0.00327
C          1.54827        0.79058       -0.00166
C          2.79110        1.43263        0.00002
C          4.07356        0.89845        0.00189
C          4.46140       -0.43193        0.00265
C          3.64957       -1.55369        0.00180
C          2.26331       -1.62304       -0.00001
C          1.30202       -0.60933       -0.00147
N          0.03128       -1.09489       -0.00311
H          1.87583       -2.64047       -0.00054
H          4.16680       -2.51020        0.00242
H          5.53331       -0.61959        0.00378
H          4.88650        1.62146        0.00245
H          2.77301        2.52088       -0.00035
H          0.57539        2.74544       -0.00337
