24
Coordinates from ORCA-job ./opt_b97-3c_parallel
N         -2.24451       -3.57819        0.09271
C         -1.90714       -2.48853        0.06735
C         -1.53430       -1.10083        0.03435
C         -2.73086       -0.41577       -0.03324
N         -3.06251        0.87619       -0.05345
C         -2.12179        1.89084       -0.01437
C         -0.68204        1.87687       -0.00786
C         -0.14561        3.21059       -0.00306
N          0.31096        4.25685        0.01101
C          0.19505        0.77856       -0.00702
N          1.52174        1.12550       -0.04204
C          2.52788        0.16412       -0.04180
C          2.11029       -1.17141        0.02295
N          3.20655       -1.97234        0.01039
C          4.22545       -1.02944       -0.06243
N          3.82330        0.21859       -0.08681
H          5.27673       -1.35821       -0.10318
C          0.80197       -1.56262        0.06554
C         -0.17546       -0.57534        0.03493
H          0.58926       -2.62648        0.10807
H         -2.76066        2.78926       -0.01989
N         -3.84538       -0.41968       -0.07962
H         -4.79110       -0.02958       -0.11897
H         -3.99055       -1.42821       -0.16958
