25
Coordinates from ORCA-job ./opt_b97-3c_parallel
N         -2.14550       -3.34895        0.00181
C         -1.97050       -2.21742        0.00083
C         -1.81588       -0.79269       -0.00045
C         -3.07243       -0.18393       -0.00268
N         -3.49877        1.09344       -0.00405
C         -2.49460        2.04191       -0.00327
C         -1.21170        2.47938       -0.00255
C         -0.34757        1.27517       -0.00124
C          0.99677        1.81615       -0.00171
C          2.04757        0.83796        0.00230
C          1.83889       -0.56580        0.00540
N          3.09511       -1.11925        0.00881
C          4.02658       -0.09000        0.00712
N          5.00939       -0.58198        0.00976
H          5.36462       -1.53637        0.01190
H          5.81846        0.03616        0.00975
N          3.38458        1.13983        0.00279
N          0.55018       -1.05920        0.00455
C         -0.50741       -0.16352        0.00079
H          1.26515        2.86981       -0.00451
H         -0.99240        3.54706       -0.00291
H         -3.08738        2.96941       -0.00414
N         -4.14990       -0.46450       -0.00405
H         -4.00810       -1.47791       -0.00377
H         -5.16223       -0.34953       -0.00548
