25
Coordinates from ORCA-job ./opt_b97-3c_parallel
N         -2.14807       -3.10500       -0.10647
C         -1.88677       -1.99666       -0.01495
C         -1.60104       -0.59524        0.06600
C         -2.80348        0.18410       -0.07086
N         -2.96317        1.50122        0.09441
C         -2.06810        2.46971        0.29981
N         -0.69815        2.46500        0.19543
C          0.03847        1.35220        0.06921
N          1.23708        1.83289        0.02632
C          2.26700        1.06293       -0.07517
C          2.11827       -0.34339        0.07025
C          3.35546       -0.91507       -0.02617
C          4.20624        0.07845       -0.24709
C          3.59921        1.25955       -0.28142
H          4.08239        2.21834       -0.45797
H          5.27662       -0.05823       -0.38558
H          3.61621       -1.96984        0.04419
C          0.86286       -0.94511        0.21862
C          1.03544       -2.36081        0.42078
N          0.96038       -2.64918        1.52665
C         -0.31170       -0.05769        0.13511
H         -2.75236        3.32562        0.40873
N         -3.89273        0.30439       -0.19987
H         -3.92101       -0.66726       -0.50700
H         -4.73839        0.74081       -0.56638
