29
Coordinates from ORCA-job ./opt_b97-3c_parallel
N         -4.35101       -2.55377       -0.05947
C         -3.54584       -1.74233       -0.04058
C         -2.91973       -0.45704       -0.00302
C         -1.53742       -0.18440        0.00194
C         -1.42912        1.16372        0.04235
N         -2.62677        1.78719        0.06407
C         -3.35568        0.92453        0.03974
N         -4.68733        1.22692        0.05173
H         -5.38079        0.48644        0.02936
H         -4.99930        2.19080        0.08079
C         -0.15366        1.71128        0.05536
C          0.96794        0.85739        0.02701
C          2.19684        1.52579        0.03743
C          3.49534        1.02197        0.01771
N          4.50264        1.94777        0.02578
H          5.44802        1.63817       -0.17246
H          4.27527        2.92051       -0.14749
C          3.89889       -0.30766       -0.00650
C          3.11390       -1.45342       -0.02751
N          3.78770       -2.64410       -0.04570
H          4.77960       -2.64688        0.16416
H          3.26572       -3.49963        0.11067
C          1.72557       -1.54103       -0.03502
C          0.74790       -0.54495       -0.01110
N         -0.51481       -1.05281       -0.02410
H          1.33930       -2.56015       -0.06098
H          4.97554       -0.47485       -0.01134
H          2.13917        2.61289        0.06447
H         -0.04147        2.79309        0.08718
