24
Coordinates from ORCA-job ./opt_b97-3c_parallel
N         -1.79453       -3.37577        0.01907
C         -1.69998       -2.23782        0.02439
C         -1.53804       -0.81249        0.04170
C         -2.73108       -0.04054       -0.16016
N         -2.84877        1.29183       -0.12176
C         -1.93473        2.25409        0.05400
N         -0.56114        2.22536        0.17234
C          0.16497        1.09977        0.22323
N          1.40832        1.45911        0.31975
C          2.41207        0.64537        0.18788
C          2.21075       -0.76319        0.29459
C          3.35302       -1.39954       -0.06184
C          4.23347       -0.44574       -0.33580
C          3.71572        0.77146       -0.18924
H          4.24120        1.70812       -0.36212
H          5.25964       -0.63739       -0.64312
H          3.52199       -2.47407       -0.09495
C          0.84290       -1.21001        0.36646
C         -0.26642       -0.28447        0.21314
H          0.99197       -2.04642        1.04787
H         -2.57415        3.15015        0.01535
N         -3.81546        0.04316       -0.33828
H         -3.85932       -0.96575       -0.47711
H         -4.67876        0.42203       -0.72615
