24
Coordinates from ORCA-job ./opt_b97-3c_parallel
N          2.64294        2.50149        1.42119
C          2.29324        1.45566        1.11251
C          1.82618        0.76741        0.37276
C          2.74844       -0.07619       -0.20396
N          2.82439       -1.41278       -0.34151
C          1.82113       -2.16499        0.14647
N          0.70696       -1.86502        0.73445
C         -0.06268       -0.85958        0.44395
C         -1.44183       -1.01855        0.30796
C         -2.20791       -2.22368        0.43981
N         -2.47258       -3.21420       -0.06491
C         -2.03733        0.26234        0.02146
C         -1.39718        1.45307       -0.11212
N         -0.29255        1.27404       -0.02430
C          0.48078        0.49403        0.24732
C         -2.38615        2.30005       -0.28485
C         -3.59296        1.74571       -0.27896
N         -3.36403        0.45147       -0.08401
H         -4.61740        2.13176       -0.38926
H         -2.23039        3.36716       -0.42169
H          1.93568       -3.25062        0.00805
N          3.68884       -0.24179       -0.77071
H          3.80796        0.76906       -0.76148
H          4.59986       -0.64519       -0.55665
