27
Coordinates from ORCA-job ./opt_b97-3c_parallel
N          4.49544        2.58169       -0.12486
C          3.82049        1.66380       -0.04447
C          2.94131        0.54097        0.03027
C          1.55600        0.27160        0.04782
C          1.46715       -1.08427        0.06534
N          2.67465       -1.68589        0.07677
C          3.41640       -0.83202        0.05656
N          4.30716       -1.48473        0.05616
H          4.75560       -2.31091        0.44741
H          5.04451       -0.80003       -0.10371
C          0.19389       -1.75660        0.08139
C         -0.91797       -0.82236        0.04632
N         -2.15617       -1.33518       -0.01474
C         -3.46562       -0.89926       -0.05141
N         -4.12676       -1.78075       -0.12355
H         -5.13245       -1.85330       -0.28384
H         -3.77880       -2.73981       -0.16293
N         -4.07370        0.34869       -0.00465
C         -3.18558        1.41441        0.06064
N         -3.89298        2.26558        0.13447
H         -3.42981        3.17590        0.18589
H         -4.88657        2.47986        0.24382
C         -1.82542        1.56324        0.05675
C         -0.70791        0.57146        0.05621
N          0.52321        1.13611        0.05357
H         -1.38944        2.56343        0.04728
H          0.08844       -2.83353        0.17677
