23
Coordinates from ORCA-job ./opt_b97-3c_parallel
N         -1.70039       -3.04134        0.60799
C         -1.61452       -1.89974        0.60788
C         -1.37929       -0.87090        0.23948
C         -2.58788       -0.24180        0.01334
N         -3.01757        1.02933       -0.08928
C         -2.12479        2.02926        0.02783
N         -0.84421        2.02851        0.20528
C          0.09817        1.14747        0.09502
C          1.39898        1.61527       -0.02264
C          2.30576        0.50691       -0.08284
N          3.63444        0.68639       -0.12556
C          4.18081       -0.52561       -0.09943
C          3.16605       -1.38101       -0.03974
C          1.98247       -0.81125       -0.03196
N          0.86054       -0.87563       -0.00134
C         -0.12081       -0.31073        0.10661
H          3.30308       -2.45845        0.00006
H          5.27575       -0.63248       -0.12168
H          1.70436        2.65784       -0.04165
H         -2.48118        3.06718       -0.04845
N         -3.68293       -0.20200       -0.19471
H         -3.57642       -1.17224       -0.48326
H         -4.68381       -0.01211       -0.16195
