26
Coordinates from ORCA-job ./opt_b97-3c_parallel
N         -4.63800       -2.45452       -0.34696
C         -3.85196       -1.64267       -0.17818
C         -2.85102       -0.63699       -0.01223
C         -1.44505       -0.53766        0.05802
C         -1.17914        0.79781        0.08023
N         -2.31569        1.53065        0.05972
C         -3.16006        0.77964        0.00744
N         -3.99485        1.50178       -0.03815
H         -4.40171        2.40344        0.20360
H         -4.77166        0.85385       -0.16126
C          0.15192        1.22017        0.10125
C          0.48480        2.62644        0.12547
N          0.77914        3.72923        0.15165
C          1.14798        0.22563        0.08967
N          2.45030        0.55452        0.02813
C          3.70128       -0.02588       -0.00134
N          4.56709        0.64589       -0.11015
H          5.48223        0.26229       -0.34378
H          4.53656        1.57960       -0.51813
N          4.13692       -1.33494        0.07057
C          3.08708       -2.23050        0.15496
C          1.72424       -2.26893        0.14618
C          0.75914       -1.13040        0.10814
N         -0.53457       -1.53159        0.08395
H          1.22017       -3.23447        0.15984
H          3.45856       -3.26259        0.24996
