29
Coordinates from ORCA-job ./opt_b97-3c_parallel
N         -4.52829       -2.01456       -0.60754
C         -3.83960       -1.13118       -0.37866
C         -2.95095       -0.03858       -0.12170
C         -3.48412        1.26768        0.11271
N         -2.42091        1.57872        0.17179
C         -1.31478        1.53526        0.13772
C         -1.52735        0.12641       -0.05012
C         -0.52320       -0.84396       -0.08046
C         -0.86815       -2.23635       -0.23683
N         -1.11521       -3.34370       -0.37150
C          0.81420       -0.42957       -0.00115
C          1.94556       -1.42034        0.01306
C          3.28578       -1.17624        0.10428
N          4.17474       -0.11724        0.04190
C          3.53953        1.10691       -0.06648
N          4.28213        1.90974       -0.20205
H          5.23556        1.64279       -0.44571
H          4.15990        2.86494       -0.53592
N          2.28899        1.44151       -0.00726
C          1.07693        0.94993        0.05495
C          0.05609        1.97101        0.15611
H          0.25817        3.02868        0.30315
N          4.10562       -1.89358        0.27663
H          3.59945       -2.75323        0.48884
H          5.06993       -2.05985        0.56192
H          1.63786       -2.46160       -0.03940
N         -4.35358        1.93575        0.21513
H         -4.87186        2.76719        0.49231
H         -5.03731        1.18934        0.10237
