29
Coordinates from ORCA-job ./opt_b97-3c_parallel
N         -1.99384       -3.57864        0.45257
C         -1.88014       -2.45267        0.30195
C         -1.78550       -1.03202        0.14634
C         -3.09973       -0.40483        0.04513
N         -3.46969        0.92286       -0.16435
C         -2.56256        1.94753       -0.04064
N         -1.39839        1.83139        0.48915
C         -0.38247        1.07175        0.28507
C          0.90468        1.74528        0.29903
C          2.10298        0.97154        0.13416
N          3.29779        1.57772        0.18555
C          4.30040        0.63743        0.03413
N          5.37901        0.87553        0.05267
H          5.87486        1.63480        0.52171
H          6.10819        0.28420       -0.34955
C          3.47211       -0.43656       -0.08716
C          1.99075       -0.43461       -0.04081
C          0.72361       -1.09752       -0.07705
C          0.94876       -2.43024       -0.54755
N          1.16956       -3.47499       -0.95185
C         -0.49503       -0.30980        0.10902
H          3.86882       -1.44169       -0.22428
H          0.96656        2.81951        0.45370
N         -3.16432        2.84092       -0.28314
H         -4.15339        2.74113       -0.51662
H         -2.98708        3.84487       -0.28156
N         -4.19860       -0.50891        0.00004
H         -5.19780       -0.32348        0.08948
H         -4.09744       -1.52091        0.08190
