25
Coordinates from ORCA-job ./opt_b97-3c_parallel
N         -1.90754       -3.31535       -0.08598
C         -1.77747       -2.18155       -0.07256
C         -1.65851       -0.75140       -0.04382
C         -2.94921       -0.21348       -0.01889
N         -3.43870        1.04048        0.01403
C         -2.48056        2.02662        0.02995
C         -1.16547        2.34256        0.02880
C         -0.19910        1.38182        0.00101
N          1.10698        1.89717        0.01582
C          2.12850        0.94065       -0.01495
N          3.50347        0.88523       -0.01715
C          3.87462       -0.45303       -0.06240
N          4.98018       -0.54055       -0.06635
H          5.47580       -1.43424       -0.01712
H          5.72392        0.15945       -0.12612
C          2.78286       -1.28989       -0.10328
C          1.71974       -0.43392       -0.05968
N          0.61790       -0.63746       -0.06163
C         -0.35614       -0.07651       -0.03894
H          2.77284       -2.23291        0.44126
H         -0.88567        3.39660        0.03368
H         -3.12439        2.92082        0.05257
N         -4.04740       -0.40523       -0.01266
H         -4.12201       -1.42543       -0.02996
H         -5.02044       -0.08610       -0.00047
