28
Coordinates from ORCA-job ./opt_b97-3c_parallel
N         -5.49914       -0.18053        0.55672
C         -4.52688       -0.13754       -0.04229
C         -3.41787       -0.07020       -0.06555
C         -2.74220        1.13670       -0.01739
N         -1.63063        1.26032       -0.10268
C         -0.63406        0.74680       -0.08936
C          0.46945        1.56567       -0.15303
C          1.71220        0.98745       -0.08146
N          2.89673        1.70458       -0.20152
C          3.81789        0.76005       -0.05196
N          4.80907        1.25438       -0.11644
H          5.13535        2.12969       -0.53307
H          5.66123        0.79090        0.20972
C          3.24705       -0.46321        0.14770
C          3.83042       -1.73989        0.40500
N          4.28397       -2.75909        0.64489
C          1.88339       -0.37364        0.08943
N          0.77677       -1.10200        0.10080
C         -0.50381       -0.69694        0.01729
N         -1.54169       -1.48884        0.03495
C         -2.82487       -1.31587       -0.12527
N         -2.74490       -2.39867       -0.35706
H         -2.54255       -3.38825       -0.49890
H         -3.76193       -2.31783       -0.38844
H          0.37486        2.61207       -0.44678
N         -2.89065        2.20741        0.24208
H         -3.80565        2.08078        0.67618
H         -2.80670        3.20707        0.06005
