32
Coordinates from ORCA-job ./opt_b97-3c_parallel
N          5.11856        1.44996        0.72748
C          4.11892        0.93631        0.51659
C          2.84490        0.29851        0.25783
C          2.94327       -1.11378       -0.03414
N          2.29912       -2.00777        0.03223
C          1.21127       -1.94128        0.20991
C          0.13746       -0.98818        0.11139
C         -1.15429       -1.50291        0.03235
C         -2.33906       -0.68781       -0.03208
C         -2.14252        0.73288       -0.08439
C         -3.40624        1.39306       -0.23186
N         -3.61205        2.70479       -0.54681
H         -4.52634        2.98046       -0.88819
H         -2.81410        3.26058       -0.83426
C         -4.35197        0.31451       -0.16077
C         -3.74335       -0.97969       -0.02676
N         -4.40979       -2.13065        0.27795
H         -5.39080       -2.06492        0.52693
H         -3.87909       -2.90615        0.65883
H         -5.42626        0.46472       -0.19816
C         -0.78775        1.21207        0.03712
C          0.35096        0.40083        0.13560
C          1.62557        1.00587        0.27885
N          1.69253        2.36604        0.46815
H          2.57722        2.76785        0.76045
H          0.84496        2.85982        0.72384
H         -0.75549        2.29813        0.03715
H         -1.32600       -2.57673        0.02238
H          1.16697       -3.02144        0.12296
N          3.90673       -1.66606       -0.83722
H          4.74017       -1.12982       -1.05258
H          3.95191       -2.67293       -0.94522
