28
Coordinates from ORCA-job ./opt_b97-3c_parallel
N          2.48339        3.84865        0.07872
C          2.40689        2.70894        0.04097
C          2.26301        1.28445        0.02081
C          0.97929        0.65950        0.04491
C          1.14499       -0.72620        0.05290
C          2.47678       -1.04345        0.01383
C          3.01049       -2.37395        0.00191
N          3.32883       -3.37963       -0.43505
C          3.16893        0.23264       -0.01054
N          4.26676        0.35344       -0.04096
H          4.90329       -0.42773       -0.19307
H          4.83771        1.19719       -0.02429
C          0.00806       -1.59653        0.10681
C         -1.30741       -0.98179        0.10834
N         -2.30278       -1.93913        0.14319
C         -3.58310       -1.47760        0.09505
N         -4.52633       -0.49479        0.01053
C         -4.03937        0.79628       -0.05838
N         -4.98797        1.35638       -0.14031
H         -5.96974        1.12306       -0.28811
H         -4.88678        2.32991       -0.42659
C         -2.64785        1.20397       -0.00616
C         -1.50355        0.41072        0.06575
C         -0.32198        1.24903        0.09238
H         -0.26655        2.28576        0.42056
H         -2.52396        2.28366       -0.04534
H         -3.97966       -2.50326        0.15890
H          0.13158       -2.67620        0.12303
