27
Coordinates from ORCA-job ./opt_b97-3c_parallel
N         -5.39567        0.04393       -0.09778
C         -4.25268        0.03483       -0.07521
C         -2.82277       -0.00858       -0.02216
C         -2.09845       -1.25703       -0.00846
N         -2.36248       -2.32967       -0.03410
H         -1.89443       -3.22632       -0.14733
H         -3.36412       -2.51527       -0.02502
C         -0.78746       -0.73473        0.06967
C         -0.87246        0.67353        0.10050
C         -2.13549        1.19053        0.02289
N         -2.43614        2.48309       -0.19056
H         -3.39275        2.81103       -0.06792
H         -1.80526        3.21727        0.12339
C          0.39995        1.33584        0.22062
C          1.68909        0.69314        0.12606
C          2.80816        1.61270        0.09329
N          4.10337        1.27432       -0.01609
C          4.51550        0.01347       -0.10905
N          4.08613       -1.19651       -0.13741
C          2.86565       -1.59858       -0.04743
C          1.70333       -0.76324        0.07235
C          0.44732       -1.46974        0.13889
H          0.40479       -2.54130        0.31975
H          2.97633       -2.69212       -0.09777
H          5.61194        0.02880       -0.19961
H          2.92520        2.70590        0.13119
H          0.33140        2.39467       -0.01828
