29
Coordinates from ORCA-job ./opt_b97-3c_parallel
N         -1.35453       -3.90856       -0.17212
C         -0.99148       -2.82622       -0.11437
C         -0.51724       -1.45958       -0.06038
C          0.85833       -1.20867       -0.00737
C          1.85527       -2.24147        0.02010
C          2.86798       -1.21407       -0.00407
N          4.08048       -1.83150       -0.15404
H          4.92279       -1.28181       -0.01279
H          4.14478       -2.83688       -0.03352
C          2.77126        0.22494        0.10363
C          3.82206        1.07185        0.58688
N          4.79571        1.64949        0.43105
C          1.33964        0.08609        0.03315
C          0.45352        1.16887       -0.00261
C          0.96587        2.52234        0.02534
N          1.37612        3.58873        0.06143
C         -0.93240        0.93881       -0.05943
N         -1.79454        1.98429       -0.12044
C         -2.84838        2.31180       -0.18507
C         -3.87134        1.29908       -0.24620
C         -3.75250       -0.12142       -0.03554
N         -2.76306       -0.61481       -0.05878
C         -1.42455       -0.38507       -0.06446
N         -4.76755       -0.86763        0.48391
H         -5.68949       -0.46422        0.60699
H         -4.63722       -1.85527        0.67028
H         -4.81868        1.82252       -0.34868
H         -2.82667        3.27761       -0.67555
H          1.85884       -3.14602       -0.58174
