29
Coordinates from ORCA-job ./opt_b97-3c_parallel
N         -1.77800       -4.01917        0.18030
C         -1.42207       -2.93406        0.12370
C         -0.99236       -1.55465        0.05604
C         -1.94046       -0.55355        0.10924
C         -1.64004        0.75097       -0.07169
N         -2.76832        1.49982       -0.12541
C         -3.64883        0.81178        0.01402
N         -4.93534        1.26050        0.04043
H         -5.68531        0.63699        0.31678
H         -5.11628        2.25846        0.04445
C         -3.34847       -0.59038        0.17752
H         -4.03524       -1.41578        0.33686
C         -0.30850        1.15357       -0.21044
C         -0.14056        2.52685       -0.64387
N         -0.02551        3.60407       -1.00989
C          0.74836        0.18984       -0.09525
C          0.35678       -1.17828       -0.07882
N          1.25342       -2.15826       -0.22535
C          2.24360       -2.57808       -0.38264
C          3.32543       -1.65871       -0.23512
C          3.27981       -0.27922       -0.01034
N          4.53743        0.25148        0.16034
H          4.62100        1.20087        0.51014
H          5.31658       -0.37925        0.31306
C          2.13016        0.56628        0.04645
C          2.44674        1.91909        0.47824
N          2.71926        2.96838        0.84248
H          4.26947       -2.19930       -0.27144
H          2.19319       -3.46860       -0.99826
