27
Coordinates from ORCA-job ./opt_b97-3c_parallel
N         -1.74061       -3.42280        0.16033
C         -1.54028       -2.29897        0.11531
C         -1.26574       -0.87884        0.05697
C         -2.35106       -0.00077        0.02692
C         -2.13276        1.33491       -0.03135
C         -3.41845        1.90471       -0.04660
C         -4.22896        0.70975        0.00910
N         -3.67697       -0.27457        0.04679
H         -5.30763        0.60859        0.02069
H         -3.74179        2.93965       -0.08747
C         -0.87396        1.90381       -0.06309
C          0.23883        1.05536       -0.03263
C          1.48000        1.70312       -0.06038
C          2.76450        1.05817       -0.01827
N          3.12794        0.01587       -0.01116
C          2.52836       -0.91095        0.00559
N          3.51136       -1.85924       -0.03993
H          4.47308       -1.58342       -0.20236
H          3.26630       -2.83628       -0.15726
C          1.13285       -1.25774        0.05044
C          0.05276       -0.35630        0.02588
H          1.00823       -2.33686        0.09932
N          3.92960        1.76992        0.03430
H          3.90295        2.77488        0.16463
H          4.80832        1.28925        0.19058
H          1.54095        2.78861       -0.10707
H         -0.76399        2.98516       -0.10824
