26
Coordinates from ORCA-job ./opt_b97-3c_parallel
N          0.29747        3.75988       -0.01437
C          0.30655        2.61903       -0.01739
C          0.27808        1.19152       -0.01172
C          1.55900        0.52623       -0.00504
C          1.80918       -0.89001        0.00244
N          3.11463       -1.34424        0.01189
C          4.02720       -0.30363        0.01254
N          5.13379       -0.32302        0.01990
H          5.78184        0.46785        0.02907
H          5.73377       -1.14994        0.01891
C          3.03949        0.63714        0.00378
H          3.27676        1.69977        0.00404
N          0.61194       -1.40419       -0.00040
C         -0.64975       -1.07541        0.00092
C         -1.61288       -2.15586        0.00855
C         -3.04683       -2.02810        0.01308
N         -3.76403       -0.89744        0.01126
C         -3.38901        0.38230        0.00293
N         -4.38414        0.86767        0.00603
H         -4.47784        1.88496        0.03216
H         -5.34666        0.52334       -0.00667
C         -2.16022        0.99725       -0.00636
C         -0.88497        0.30432       -0.00567
H         -2.14913        2.08342       -0.01293
H         -3.63375       -2.96080        0.01987
H         -1.22546       -3.17183        0.01218
