26
Coordinates from ORCA-job ./opt_b97-3c_parallel
N          1.51289        3.95912       -0.00292
C          1.11611        2.88661       -0.00246
C          0.62832        1.51979       -0.00244
C         -0.75657        1.37298       -0.00211
C         -1.29766        0.13624       -0.00202
C         -2.69859        0.33474       -0.00155
C         -4.01100       -0.22962       -0.00020
N         -4.78528       -1.07021        0.00042
C         -2.68919        1.78002       -0.00145
N         -1.70920        2.33361       -0.00196
H         -3.51827        2.47857       -0.00060
C         -0.54411       -1.02551       -0.00242
C         -1.28835       -2.26831       -0.00366
N         -1.87009       -3.25211        0.00460
C          0.87541       -0.93068       -0.00217
C          1.56789       -2.16120       -0.00203
C          2.92223       -2.45826       -0.00165
C          3.99952       -1.59786       -0.00172
C          3.96211       -0.21925       -0.00262
C          2.86362        0.62835       -0.00295
C          1.47459        0.36938       -0.00248
H          3.19819        1.65954       -0.00362
H          4.93314        0.27149       -0.00279
H          4.98575       -2.05668       -0.00140
H          3.17096       -3.51738       -0.00107
H          0.99106       -3.07941       -0.00178
