31
Coordinates from ORCA-job ./opt_b97-3c_parallel
N         -0.82732       -4.04560        0.02874
C         -0.71599       -2.90801        0.02994
C         -0.59289       -1.46489        0.02502
C         -1.78234       -0.76024        0.02225
C         -1.85619        0.58508        0.01660
N         -3.14455        1.00532        0.02478
C         -3.80376        0.09235        0.03463
N         -5.16500        0.15960        0.05109
H         -5.72543       -0.68469        0.02333
H         -5.63251        1.05904        0.02151
C         -3.12910       -1.18294        0.03243
H         -3.56577       -2.17671        0.04129
C         -0.68510        1.33633        0.00320
C         -0.86802        2.77576        0.00342
N         -0.99870        3.91155        0.00945
C          0.58828        0.68615       -0.00283
C          1.71230        1.54123       -0.03205
C          3.07978        1.28284       -0.03653
C          3.72297        0.05853       -0.00830
C          3.15358       -1.20146        0.02520
N          4.03470       -2.24857        0.04920
H          5.01249       -2.07019       -0.15220
H          3.68202       -3.18896       -0.09227
C          1.80352       -1.53618        0.03417
C          0.63527       -0.74442        0.01768
H          1.67550       -2.61296        0.06173
H          4.81231        0.09025       -0.01362
N          3.90038        2.37787       -0.07006
H          4.88990        2.25413        0.11447
H          3.49797        3.29693        0.07878
H          1.52739        2.60957       -0.05984
