22
Coordinates from ORCA-job ./opt_b97-3c_parallel
N         -1.06234       -3.64433       -0.00362
C         -0.81100       -2.53075        0.00649
C         -0.53846       -1.12937        0.00580
C         -1.65763       -0.22312        0.00297
C         -1.62424        1.21266        0.00013
N         -2.81785        1.89837       -0.00335
C         -3.74083        0.96094       -0.00392
C         -3.13914       -0.21960       -0.00096
H         -3.70964       -1.14670       -0.00147
H         -4.83649        1.07650       -0.00683
N         -0.38150        1.59081        0.00091
C          0.74746        0.94196        0.00055
C          1.83218        1.78307       -0.00157
C          3.13793        1.39952       -0.00175
N          3.95769        0.29741       -0.00032
C          3.20616       -0.85081        0.00106
C          1.91682       -1.28550        0.00096
C          0.77908       -0.51667        0.00282
H          1.79709       -2.36585       -0.00030
H          3.87051       -1.72944        0.00137
H          3.95414        2.13826       -0.00186
H          1.66045        2.85955       -0.00280
