23
Coordinates from ORCA-job ./opt_b97-3c_parallel
N         -0.68551       -3.49479        0.03048
C         -0.75119       -2.35517        0.03507
C         -0.77008       -0.91952        0.02743
C         -1.95557       -0.23698        0.02242
C         -2.02673        1.13175       -0.02763
N         -0.89960        1.85964       -0.07528
C          0.33660        1.31209       -0.06126
N          1.37669        2.24084       -0.11750
C          2.69169        1.83661       -0.09178
N          3.60014        0.81473       -0.02130
C          2.89738       -0.35811        0.04381
N          3.53702       -1.25629        0.12485
H          3.35519       -2.26264        0.12827
H          4.54265       -1.17553        0.29041
N          1.64249       -0.92702        0.05844
C          0.46784       -0.15835        0.00668
H          3.31474        2.74486       -0.15135
C         -3.38977        1.31061        0.00507
C         -4.03859        0.16454        0.07324
C         -3.15506       -0.79896        0.08413
H         -3.38803       -1.86144        0.13812
H         -5.11957        0.04193        0.11599
H         -3.87854        2.28318       -0.01329
