27
Coordinates from ORCA-job ./opt_b97-3c_parallel
N         -0.82361       -3.18110       -0.78172
C         -0.90450       -2.04541       -0.88022
C         -0.68453       -1.19059       -0.20844
C         -1.82008       -0.40540       -0.10154
N         -3.21550       -0.53922       -0.06650
C         -3.96433        0.62811        0.06138
N         -5.06693        0.51602        0.07035
H         -5.66102       -0.24497       -0.27054
H         -5.73336        1.22692        0.38534
C         -2.93029        1.50954        0.12718
C         -1.73665        0.95375        0.03207
N         -0.50841        1.45668        0.06601
C          0.68553        0.83116        0.03366
N          1.79819        1.49627        0.13435
C          3.08943        1.41068        0.03185
N          3.47637        2.29471       -0.50086
H          3.25726        3.28428       -0.62424
H          4.48197        2.22508       -0.66721
C          3.70136        0.20858        0.25531
C          2.97959       -0.95621        0.27743
N          3.38958       -1.96968        0.47609
H          4.37718       -1.96613        0.74910
H          3.14624       -2.96473        0.50053
N          1.68798       -1.46174        0.14836
C          0.56755       -0.61993       -0.03319
H          4.79049        0.17540        0.31377
H         -3.07796        2.57969        0.26849
