28
Coordinates from ORCA-job ./opt_b97-3c_parallel
N         -1.35510       -3.47658       -0.25954
C         -1.20893       -2.34542       -0.18171
C         -1.04382       -0.91199       -0.08187
C         -2.16979       -0.09534       -0.02776
C         -2.05556        1.26855        0.07534
C         -3.32370        1.82552        0.10929
C         -4.23157        0.77555        0.02198
C         -3.52002       -0.41753       -0.06188
H         -3.94764       -1.41465       -0.14368
H         -5.31477        0.87059        0.01776
H         -3.56494        2.88327        0.18414
C         -0.81824        1.88971        0.11917
C          0.34520        1.10508        0.05173
C          1.55473        1.82682        0.06010
C          2.87744        1.36562       -0.03503
N          3.86248        2.31360       -0.06401
H          3.59981        3.28207       -0.20937
H          4.79858        2.03111       -0.33324
C          3.28990        0.03477       -0.11233
C          2.41313       -1.09481       -0.06445
N          1.32203       -1.08732       -0.07860
C          0.23070       -0.30628       -0.03857
N          2.83775       -2.37136        0.15828
H          3.80909       -2.54995        0.38531
H          2.15826       -3.09947        0.34902
H          4.34647       -0.21223       -0.19540
H          1.45540        2.90909        0.12648
H         -0.76460        2.97358        0.19299
