28
Coordinates from ORCA-job ./opt_b97-3c_parallel
N         -1.24841       -4.03446       -0.02764
C         -1.00300       -2.91818       -0.00836
C         -0.66932       -1.51614        0.02412
C         -1.69336       -0.58482        0.07489
C         -1.56123        0.82844        0.08659
C         -2.74552        1.48835       -0.01334
C         -3.71510        0.58437       -0.06457
N         -5.02185        0.86562       -0.16438
H         -5.38020        1.78174        0.10026
H         -5.72253        0.16727        0.08057
C         -3.12736       -0.64669       -0.00742
H         -3.69849       -1.56999        0.00203
H         -2.87903        2.56828       -0.03603
C         -0.19654        1.29293        0.02264
C          0.02895        2.72025        0.01710
N          0.23635        3.84423        0.01363
C          0.87242        0.37148        0.01283
N          2.13141        0.84658        0.00161
C          3.47624        0.54343       -0.00733
N          4.08077       -0.69825       -0.00920
C          3.15572       -1.72527       -0.00454
C          1.81623       -1.98432        0.00198
C          0.65247       -1.02925        0.01612
H          1.52768       -3.03152        0.00373
H          3.71372       -2.67458       -0.00321
N          4.19388        1.37863       -0.00987
H          4.06444        2.38961       -0.00070
H          5.20020        1.21733       -0.00022
