21
Coordinates from ORCA-job ./opt_b97-3c_parallel
N         -1.12055       -3.52609       -0.12825
C         -0.89490       -2.40684       -0.10226
C         -0.65001       -0.99444       -0.05379
C         -1.68488       -0.08883       -0.02334
C         -1.60929        1.27877        0.02604
N         -0.35512        1.86623        0.05235
C          0.76924        1.04691        0.02326
N          1.89559        1.86476        0.05634
C          3.14500        1.29341        0.03211
N          3.90086        0.15729       -0.01615
C          3.03259       -0.89583       -0.05753
N          1.73134       -1.33514       -0.07183
C          0.67892       -0.41801       -0.03338
H          3.63408       -1.81820       -0.09862
H          4.03386        1.94327        0.05886
C         -2.89634        1.74976        0.03755
C         -3.77200        0.75046       -0.00176
C         -3.07108       -0.40695       -0.03963
H         -3.49623       -1.40570       -0.07780
H         -4.85598        0.84433       -0.00485
H         -3.16764        2.80288        0.07210
