24
Coordinates from ORCA-job ./opt_b97-3c_parallel
N         -1.69609       -3.38611        0.00004
C         -1.67451       -2.24316        0.00243
C         -1.08705       -0.93254        0.00046
C         -2.09592        0.01472       -0.00056
C         -1.67749        1.35111       -0.00270
N         -2.76930        2.16018       -0.00334
C         -3.80451        1.23935       -0.00160
N         -3.39611       -0.00235       -0.00041
H         -4.86267        1.54268       -0.00091
C         -0.38746        1.79359       -0.00308
C          0.69177        0.83797       -0.00126
C          1.96921        1.34054       -0.00041
C          3.17873        0.70633       -0.00460
N          3.66230       -0.58287       -0.00527
C          2.62346       -1.48762       -0.00169
C          1.26670       -1.59463        0.00224
C          0.33218       -0.58626        0.00033
H          0.90302       -2.61898        0.00604
H          3.07417       -2.49283       -0.00148
N          4.19046        1.15329       -0.00703
H          4.21452        2.17290       -0.00943
H          5.16581        0.85518       -0.00548
H          2.03048        2.42866        0.00471
H         -0.17894        2.85990       -0.00422
