34
Coordinates from ORCA-job ./opt_b97-3c_parallel
N          5.54393        0.34319        0.19607
C          4.49429        0.32797        0.65089
C          3.10136        0.14398        0.37317
C          2.45912       -1.13580        0.23229
N          3.09250       -2.34688        0.16646
H          2.56354       -3.15323       -0.14682
H          4.09975       -2.36015        0.04620
C          1.06459       -0.78035        0.18858
C          0.95007        0.64274        0.00830
C          2.26546        1.21714       -0.09443
N          2.65346        2.42444       -0.60867
H          1.97923        2.96620       -1.13755
H          3.63911        2.57526       -0.79618
C         -0.38702        1.19189       -0.02727
N         -0.43534        2.56025       -0.05575
H         -1.31957        3.01336       -0.26207
H          0.42324        3.08044       -0.19741
C         -1.54740        0.40952       -0.03356
C         -2.84167        1.05812       -0.01886
N         -3.83835        0.85304       -0.44964
C         -4.24899       -0.12761       -0.75519
C         -3.86127       -1.47125       -0.41728
C         -2.55886       -1.85071       -0.08192
C         -1.44418       -0.98978        0.02141
C         -0.16725       -1.54403        0.19620
N          0.04824       -2.88668        0.35929
H          0.95799       -3.18142        0.69735
H         -0.74581       -3.47597        0.58179
H         -2.41527       -2.91855        0.05385
H         -4.64639       -2.21941       -0.49317
H         -5.23650        0.25013       -0.99361
N         -3.25404        1.86344        1.00959
H         -2.56984        2.24146        1.65526
H         -4.17844        2.27860        0.98875
