28
Coordinates from ORCA-job ./opt_b97-3c_parallel
N          0.32073        4.40571        0.00132
C          0.16782        3.27277        0.00068
C         -0.04470        1.84082       -0.00042
C         -1.35295        1.36832       -0.00095
C         -1.64710        0.02208       -0.00221
C         -3.04155       -0.10169       -0.00251
C         -3.84621       -1.29801       -0.00381
N         -4.49766       -2.23743       -0.00475
C         -3.58259        1.17639       -0.00160
C         -2.54022        2.09073       -0.00058
H         -2.64414        3.17332        0.00018
H         -4.64215        1.41960       -0.00168
C         -0.62462       -0.93263       -0.00288
C         -0.95758       -2.34131       -0.00413
N         -1.19837       -3.45891       -0.00521
C          0.72265       -0.49178       -0.00211
C          1.73278       -1.47531       -0.00245
C          3.15449       -1.25888       -0.00015
N          3.86470       -0.41828       -0.00252
C          3.54303        0.63611       -0.00213
C          2.33148        1.40841       -0.00091
C          1.01605        0.90577       -0.00109
H          2.58568        2.46513       -0.00022
H          4.56717        0.99174       -0.00232
N          4.04580       -2.29503        0.01104
H          5.04392       -2.11939       -0.00361
H          3.71816       -3.25457       -0.00053
H          1.54151       -2.54591       -0.00364
