27
Coordinates from ORCA-job ./opt_b97-3c_parallel
N         -1.83239       -3.89914        0.42987
C         -1.42076       -2.84200        0.28834
C         -0.88191       -1.50547        0.12111
C         -1.81552       -0.47532        0.10929
C         -1.43760        0.79657       -0.08154
N         -2.53089        1.57163       -0.15364
C         -3.03536        0.57765        0.02947
N         -4.34288        0.98637        0.04376
H         -5.09070        0.31770        0.19424
H         -4.58033        1.96229       -0.09546
N         -3.15353       -0.53444        0.18801
C         -0.09316        1.14784       -0.18543
C          0.13409        2.50913       -0.63559
N          0.30079        3.57566       -1.01161
C          0.92870        0.15650       -0.03307
C          2.28006        0.57763        0.15686
C          2.58501        1.87029        0.73915
N          2.84589        2.87472        1.21885
C          3.46579       -0.14094       -0.00518
C          3.66076       -1.46296       -0.34282
C          2.70337       -2.44866       -0.40374
C          1.34118       -2.34082       -0.18283
C          0.50569       -1.21379       -0.02360
H          0.88693       -3.32460       -0.22275
H          3.07472       -3.45236       -0.60020
H          4.69121       -1.78022       -0.48782
H          4.39772        0.40722        0.13761
