25
Coordinates from ORCA-job ./opt_b97-3c_parallel
N          1.08720        3.66828        0.30087
C          0.73516        2.58333        0.24922
C          0.25438        1.23131        0.18965
C         -1.09191        0.97211        0.12235
C         -1.65537       -0.23906        0.05264
N         -0.94580       -1.41988        0.05237
C          0.43791       -1.26452        0.12729
N          1.12256       -2.48288        0.14072
C          2.50512       -2.45542        0.22084
C          3.52694       -1.55151        0.29028
C          3.23045       -0.22701        0.11886
N          2.21189        0.20358        0.21540
C          1.10788        0.04754        0.18671
N          3.84589        0.36595       -0.57854
H          3.89572        1.38057       -0.66581
H          4.74145        0.00771       -0.90810
H          4.52033       -1.86442        0.60729
H          2.88448       -3.48859        0.22981
C         -3.06653       -0.04784       -0.02757
C         -3.97650       -1.14207       -0.15120
N         -4.67111       -2.04172       -0.26342
C         -3.43242        1.28095        0.00620
C         -2.19359        1.87434        0.09217
H         -2.06449        2.95204        0.13313
H         -4.19517        1.67145       -0.66448
