21
Coordinates from ORCA-job ./opt_b97-3c_parallel
N         -1.02829       -3.56147       -0.16148
C         -0.85821       -2.43094       -0.15107
C         -0.66201       -0.99752       -0.12517
C         -1.87819       -0.21053       -0.15802
C         -1.63493        1.17715       -0.09260
N         -2.80175        1.82942       -0.03975
C         -3.15442        0.76781       -0.08905
C         -3.17546       -0.60880       -0.13092
H         -3.56517       -1.18393        0.70606
H         -4.22828        1.01247       -0.13209
C         -0.38754        1.89000       -0.06887
C          0.73914        0.99159        0.04091
N          1.80421        1.80968        0.22555
C          3.08771        1.38101        0.26985
N          3.69547        0.16107        0.00654
C          2.90377       -0.94822       -0.12317
N          1.65640       -1.17958        0.06857
C          0.61198       -0.40863       -0.01502
H          3.61832       -1.75003       -0.36258
H          3.82179        2.18829        0.41029
H         -0.31004        2.95483       -0.27193
