29
Coordinates from ORCA-job ./opt_b97-3c_parallel
N         -0.12851       -3.95061       -0.01549
C         -0.01189       -2.81353       -0.02647
C          0.12758       -1.37151       -0.02720
C          1.42418       -0.89099       -0.01925
C          1.73858        0.41916       -0.01216
N          3.08178        0.59922       -0.00543
C          3.56821       -0.41776       -0.00548
N          4.91866       -0.60424        0.00487
H          5.31238       -1.53800       -0.02163
H          5.54576        0.19238       -0.01527
C          2.67280       -1.54884       -0.01542
H          2.92250       -2.60531       -0.01532
C          0.72045        1.36831       -0.00921
C          1.14984        2.75403       -0.00103
N          1.47286        3.85092        0.00533
C         -0.64774        0.95566       -0.01439
C         -1.60206        1.99512       -0.00313
C         -2.98868        1.97349       -0.00320
C         -3.84799        0.89515       -0.01918
C         -3.51404       -0.44607       -0.04021
N         -4.56655       -1.31976       -0.05388
H         -4.38302       -2.30532        0.10098
H         -5.49493       -0.97002        0.15563
C         -2.24372       -1.01392       -0.04588
C         -0.95167       -0.44373       -0.02897
H         -2.30986       -2.09640       -0.06761
H         -4.90874        1.14047       -0.01769
H         -3.47088        2.94893        0.01015
H         -1.25187        3.02128        0.01026
