30
Coordinates from ORCA-job ./opt_b97-3c_parallel
N          0.04256       -4.43140       -0.08425
C         -0.00057       -3.28899       -0.08140
C         -0.04391       -1.84113       -0.06193
C          1.17884       -1.15943       -0.07738
C          1.22437        0.21843       -0.04454
C          2.53656        0.81124       -0.04881
C          3.33412        1.99820       -0.10179
N          4.17564        2.76855       -0.04197
C          3.08646       -0.52513       -0.02801
N          4.41553       -0.83041        0.09322
H          5.09574       -0.07980        0.02476
H          4.72675       -1.77781       -0.09064
C          2.45446       -1.81713       -0.12839
H          2.73927       -2.70865        0.42445
C          0.03880        0.95537       -0.00903
C          0.09866        2.40262        0.02032
N          0.15701        3.54444        0.03823
C         -1.20187        0.29204       -0.00543
N         -2.32349        1.02894        0.01798
C         -3.41139        1.10011        0.02931
N         -3.87660        2.38109        0.04290
H         -4.87055        2.56892       -0.02192
H         -3.22852        3.15888       -0.01866
C         -4.25885       -0.05188        0.02428
C         -3.80890       -1.37116        0.00807
C         -2.48614       -1.83799       -0.01406
C         -1.26222       -1.11992       -0.02621
H         -2.44417       -2.92225       -0.02444
H         -4.58370       -2.13419        0.01064
H         -5.32744        0.15065        0.03591
