26
Coordinates from ORCA-job ./opt_b97-3c_parallel
N         -1.09074       -2.23356       -2.18971
C         -1.16357       -1.64284       -1.21689
C         -1.17801       -0.90124        0.01039
C         -2.22960       -0.03713        0.09359
C         -2.08934        1.32985        0.01937
N         -0.85109        1.83692       -0.14483
C          0.24039        1.03749       -0.14745
N          1.43772        1.72762       -0.33704
C          2.62768        1.02530       -0.21393
N          3.38525       -0.11017        0.04446
C          2.63386       -1.23705        0.35210
N          3.37199       -2.04598        0.53431
H          3.11184       -3.02433        0.37798
H          4.32013       -2.10749        0.91710
C          1.27517       -1.39439        0.37250
C          0.18503       -0.40674        0.08734
H          0.83950       -2.38138        0.53630
N          3.36436        1.82665       -0.42540
H          4.38213        1.73297       -0.46174
H          3.20085        2.81385       -0.63964
C         -3.41072        1.69629        0.14297
C         -4.21334        0.65696        0.28274
C         -3.48160       -0.42495        0.25279
H         -3.84543       -1.44808        0.33452
H         -5.29549        0.69565        0.39847
H         -3.75654        2.72855        0.13865
