25
Coordinates from ORCA-job ./opt_b97-3c_parallel
N          1.54087        3.34538       -1.62802
C          1.13501        2.51566       -0.95487
C          0.60940        1.48455       -0.09426
C         -0.75018        1.48838        0.38917
C         -1.28246        0.15351        0.33922
C         -2.66788        0.50967        0.15225
C         -3.84640       -0.16994        0.59464
N         -4.78990       -0.72630        0.91876
C         -2.85617        1.85227        0.02402
C         -1.68717        2.44928        0.16900
H         -1.50595        3.52027        0.11334
H         -3.80185        2.35288       -0.17658
C         -0.59201       -0.99905       -0.03173
C         -1.33422       -2.20577       -0.30982
N         -1.91713       -3.16608       -0.51889
C          0.80916       -0.93942       -0.13253
C          1.55807       -2.15486       -0.54662
C          2.90105       -2.12454       -0.39105
N          3.88751       -1.50944        0.25482
C          3.69152       -0.36553        0.92776
N          2.66052        0.56025        0.80671
C          1.46052        0.33704        0.13721
H          4.49977        0.13880        1.47863
H          3.49366       -2.96887       -0.77368
H          1.09468       -3.09810       -0.82475
