27
Coordinates from ORCA-job ./opt_b97-3c_parallel
N         -2.80482       -3.43925        0.27779
C         -2.23715       -2.45018        0.19686
C         -1.53574       -1.18834        0.10620
C         -2.25709       -0.01382        0.16466
C         -1.69843        1.20072       -0.03449
N         -2.65311        2.15959       -0.08840
C         -3.65992        1.67394        0.06212
C         -3.64154        0.24167        0.24430
H         -4.48123       -0.42431        0.41502
H         -4.50120        2.35685        0.05086
C         -0.31483        1.32054       -0.18953
C          0.13122        2.62551       -0.63800
N          0.46717        3.65098       -1.01633
C          0.52162        0.16085       -0.08158
C         -0.14085       -1.09799       -0.05913
N          0.53222       -2.24036       -0.23407
C          1.41892       -2.83938       -0.42352
C          2.66839       -2.16439       -0.28165
C          2.90552       -0.80964       -0.03126
N          4.24513       -0.54609        0.13643
H          4.51874        0.35727        0.51034
H          4.88205       -1.32407        0.26752
C          1.95081        0.24860        0.05147
C          2.53111        1.50116        0.51121
N          3.00499        2.46730        0.89853
H          3.48283       -2.88390       -0.34117
H          1.16091       -3.64676       -1.09897
