26
Coordinates from ORCA-job ./opt_b97-3c_parallel
N          1.66115        3.41911       -0.07672
C          0.97830        2.54862        0.21022
C          0.64307        1.15217        0.11552
C          1.69114        0.23786        0.07491
C          1.38267       -1.14616       -0.00084
N          2.62085       -1.73897       -0.00180
C          3.55115       -0.71067        0.07040
N          4.59472       -1.08168        0.08214
H          4.98699       -2.02556        0.08560
H          5.40538       -0.45919        0.10322
C          3.02110        0.55729        0.11231
H          3.43038        1.34647       -0.51717
N          0.15314       -1.55229       -0.04095
C         -0.87175       -0.75213       -0.00715
C         -2.03254       -1.52550       -0.04295
C         -3.38216       -1.01150       -0.02279
N         -4.15640       -1.79988       -0.03634
H         -4.21356       -2.81547        0.02960
H         -5.11984       -1.46615       -0.01623
C         -3.86928        0.25836        0.01040
C         -2.96990        1.26034        0.07450
N         -1.66749        1.66742        0.11319
C         -0.67635        0.69758        0.07279
H         -3.50390        2.22278        0.10974
H         -4.92960        0.48256       -0.11860
H         -1.93533       -2.61255       -0.08568
