25
Coordinates from ORCA-job ./opt_b97-3c_parallel
N         -2.76379       -3.47873       -0.47228
C         -2.47866       -2.39709       -0.24122
C         -2.08382       -1.05416        0.05910
C         -0.69668       -0.72446       -0.01512
C         -0.63417        0.61342       -0.15209
N          0.51126        1.31228       -0.24278
C          1.69437        0.63713       -0.17420
N          2.76718        1.45735       -0.31074
C          4.08420        1.15307       -0.24319
N          4.81960        0.01885        0.05013
C          4.13872       -1.14870        0.21111
C          2.88463       -1.62728        0.14442
C          1.68580       -0.77955        0.00325
C          0.46491       -1.47059        0.07143
H          0.42530       -2.54930        0.20416
H          2.71904       -2.69576        0.26063
H          4.96965       -1.82078        0.47211
H          4.58997        2.11713       -0.40273
C         -1.98957        1.06469       -0.13558
C         -2.31900        2.42870        0.14558
N         -2.61178        3.50710        0.38619
C         -2.91721        0.04818        0.01041
N         -4.24061        0.06306        0.24826
H         -4.81566       -0.73919       -0.00206
H         -4.78137        0.90914        0.07759
