25
Coordinates from ORCA-job ./opt_b97-3c_parallel
N         -0.47997       -3.61731        0.00835
C         -0.45207       -2.47528       -0.00224
C         -0.10570       -1.08204        0.01102
C         -1.27848       -0.22894        0.00989
C         -1.30502        1.14049        0.01637
N         -0.11834        1.84719        0.01549
C          1.04731        1.10337        0.01281
N          2.05776        2.04500        0.00577
C          3.32176        1.51353        0.00100
C          4.07711        0.38804        0.00068
C          3.61486       -0.89388        0.00018
C          2.23962       -1.32670        0.00485
C          1.15858       -0.34774        0.01143
H          2.10000       -2.40336        0.00288
H          4.34340       -1.70017       -0.00379
H          5.15751        0.52065       -0.00063
H          3.91377        2.44204       -0.00393
C         -2.62480        1.50379       -0.00286
C         -3.43798        0.44852       -0.03286
N         -4.77384        0.52746       -0.12168
H         -5.37615       -0.26979        0.08071
H         -5.27792        1.39003        0.08192
C         -2.63930       -0.64919       -0.01051
H         -2.99103       -1.67693       -0.01664
H         -2.96589        2.53689       -0.02623
