33
Coordinates from ORCA-job ./opt_b97-3c_parallel
N         -5.75572       -0.28419        0.07436
C         -4.61421       -0.20602        0.10457
C         -3.18456       -0.12077        0.10175
C         -2.48865       -1.31292        0.06034
N         -2.76463       -2.58878       -0.26525
H         -3.72586       -2.85117       -0.48333
H         -2.16327       -3.09379       -0.91237
C         -1.22911       -0.78561        0.10371
C         -1.13926        0.62355        0.10698
C         -2.46783        1.13336        0.13188
N         -2.89735        2.15145        0.17697
H         -3.88289        2.29243       -0.04370
H         -2.70682        2.69362        1.01886
C          0.11775        1.35043        0.16422
N          0.06486        2.42151       -0.11548
H         -0.89020        2.75941       -0.24123
H          0.67543        3.19906       -0.36193
C          1.37995        0.61876        0.10334
C          2.58540        1.41009        0.12211
N          3.81043        0.96765       -0.19334
C          4.26731       -0.27493       -0.40313
N          3.74960       -1.49680       -0.02179
C          2.43142       -1.73219        0.32215
N          2.72353       -2.78347        0.49593
H          3.41403       -3.43427        0.86995
H          1.92972       -2.82065        1.13354
C          1.32670       -0.82531        0.17350
C          0.03220       -1.44864        0.27799
H         -0.07257       -2.37838       -0.27874
H          5.30704       -0.07586       -0.70382
N          3.19572        2.32774        0.13901
H          2.42176        2.63998        0.72310
H          3.87083        3.09198        0.12121
