30
Coordinates from ORCA-job ./opt_b97-3c_parallel
N          0.55686        4.30736       -0.61787
C          0.34715        3.19476       -0.46083
C          0.09944        1.78007       -0.27294
C         -1.22492        1.35866       -0.19088
C         -1.50408        0.04706        0.02086
C         -2.91884       -0.02909        0.10468
C         -3.94705       -1.00661        0.29246
N         -4.72849       -1.63295        0.84297
C         -3.17339        1.38071       -0.11442
N         -2.34098        2.11878       -0.25919
N         -4.43317        1.90511       -0.16355
H         -4.56454        2.90636       -0.25605
H         -5.23887        1.32537        0.04594
C         -0.52544       -0.93984        0.10411
C         -0.96819       -2.27063        0.45609
N         -1.33174       -3.31139        0.75595
C          0.83515       -0.56356       -0.05855
C          1.85964       -1.53981       -0.15837
C          1.73450       -2.92505       -0.55545
N          1.64248       -4.01242       -0.89632
C          3.26472       -1.28679       -0.35580
N          3.96862       -0.49145       -0.05553
C          3.65112        0.55192        0.09668
N          4.68062        1.03271        0.85433
H          4.71635        2.01725        1.09482
H          5.52604        0.48356        0.96492
C          2.46495        1.31886       -0.17145
C          1.14299        0.83011       -0.16583
H          2.72943        2.36935       -0.26564
H          4.09342       -1.98733       -0.39928
