34
Coordinates from ORCA-job ./opt_b97-3c_parallel
N          5.63242        0.21753       -0.06143
C          4.52833        0.03815        0.17352
C          3.10350        0.06958        0.03183
C          2.35692       -1.14714       -0.14750
N          2.84446       -2.33237       -0.62780
H          2.19324       -2.98288       -1.05273
H          3.80940       -2.36053       -0.94131
C          0.97957       -0.74756       -0.02751
C          0.89980        0.68608        0.01156
C          2.23603        1.21460        0.11850
N          2.72771        2.42639        0.52324
H          2.08776        3.08559        0.95209
H          3.70513        2.48049        0.79022
C         -0.42539        1.26633       -0.09256
N         -0.29927        2.62994       -0.07855
H         -1.11599        3.18003        0.16531
H          0.61301        3.02562        0.11730
C         -1.64143        0.54546       -0.10588
C         -2.90429        1.18791       -0.26921
N         -3.00682        2.48756       -0.68976
H         -2.18459        2.90794       -1.10948
H         -3.90955        2.81066       -1.01855
C         -4.14673        0.57055       -0.08895
C         -4.34008       -0.76677        0.40012
N         -3.76081       -1.70431        0.38442
C         -2.68837       -1.70686        0.12606
C         -1.52759       -0.85235        0.03689
C         -0.27049       -1.46339        0.06900
N         -0.12585       -2.81797        0.21005
H         -0.93535       -3.41396        0.07826
H          0.79562       -3.22412        0.09162
H         -2.77185       -2.68614        0.58641
H         -5.11749       -1.13061        1.06276
H         -5.07747        1.10940       -0.25347
