28
Coordinates from ORCA-job ./opt_b97-3c_parallel
N         -0.42964       -4.45504       -0.78372
C         -0.38446       -3.33478       -0.56227
C         -0.37316       -1.92540       -0.28332
C         -1.55167       -1.20423       -0.37770
C         -1.63047        0.10655        0.11515
C         -2.95566        0.46169        0.12882
C         -3.78986        1.55995        0.50391
N         -4.45832        2.44688        0.77244
C         -3.62692       -0.63487       -0.37194
C         -2.79927       -1.63993       -0.66913
H         -3.07849       -2.60747       -1.08157
H         -4.70550       -0.68298       -0.51059
C         -0.44996        0.76092        0.58341
C         -0.55583        2.01366        1.26803
N         -0.50889        2.92451        1.95616
C          0.77525        0.19372        0.34098
C          0.79631       -1.18055        0.17805
N          1.85013       -1.98253        0.44502
C          3.02117       -1.45933        0.83807
N          3.51200       -0.26417        0.96955
C          3.17588        0.66261        0.12466
N          4.20485        0.99546       -0.09885
H          4.93787        0.44475       -0.54109
H          4.01793        1.78822       -0.70992
C          1.80334        0.88964       -0.25211
C          1.49843        1.82118       -1.29812
N          1.22205        2.56774       -2.11792
H          3.81236       -2.20018        1.02874
