22
Coordinates from ORCA-job ./opt_b97-3c_parallel
N         -2.69607       -3.20951       -0.00106
C         -2.09455       -2.23788       -0.00083
C         -1.30091       -1.04217       -0.00035
C         -1.99073        0.22862        0.00150
C         -1.27030        1.45653        0.00170
N         -2.23232        2.38292        0.00358
C         -3.43496        1.79012        0.00431
N         -3.35246        0.41359        0.00288
H         -4.33721        2.42106        0.00561
N          0.02244        1.43355        0.00070
C          0.67270        0.30791       -0.00050
C          1.98098        0.75781       -0.00095
C          2.90604        1.85553       -0.00061
N          3.16568        2.96976        0.00074
C          3.17209       -0.05106       -0.00198
N          3.19378       -1.39006       -0.00300
C          2.18759       -2.26678       -0.00353
C          0.82265       -2.13837       -0.00261
C          0.09748       -0.95921       -0.00116
H          0.29080       -3.08352       -0.00334
H          2.55995       -3.30249       -0.00431
H          4.23153       -0.35257       -0.00264
