25
Coordinates from ORCA-job ./opt_b97-3c_parallel
N         -1.36848       -3.49919        0.67948
C         -1.07571       -2.42884        0.41648
C         -0.70253       -1.07664        0.13455
C         -1.76075       -0.17762        0.05507
N         -3.04246       -0.35840        0.09395
C         -3.44993        0.88145        0.00023
N         -4.56183        0.89740        0.02884
H         -5.20719        0.14343        0.28295
H         -5.17954        1.68058       -0.20075
C         -2.63117        1.98932       -0.07533
C         -1.50585        1.22168       -0.02805
N         -0.25520        1.73315        0.06402
C          0.80572        0.83720        0.10508
N          1.99056        1.56542        0.22761
C          3.19596        0.89006        0.09118
N          3.89666       -0.26776       -0.17798
C          3.05304       -1.33557       -0.40203
C          1.71911       -1.60370       -0.34372
C          0.65554       -0.59415       -0.04278
H          1.40498       -2.63873       -0.47024
H          3.69697       -2.19972       -0.63620
N          4.07036        1.55203        0.24299
H          4.13495        2.50280        0.61067
H          5.04404        1.25467        0.14179
H         -2.76555        2.73936       -0.85322
