27
Coordinates from ORCA-job ./opt_b97-3c_parallel
N         -0.20787       -4.33138       -1.18732
C         -0.41056       -3.34111       -0.65304
C         -0.35677       -1.94140       -0.34580
C         -1.52677       -1.20739       -0.42732
N         -2.78185       -1.66336       -0.78214
C         -3.66335       -0.61281       -0.52973
C         -2.97010        0.51831        0.02773
C         -3.55781        1.75598        0.43054
N         -4.05644        2.73602        0.74144
C         -1.60880        0.11036        0.06323
C         -0.43849        0.76890        0.56534
C         -0.47748        2.02598        1.24911
N         -0.47277        3.03439        1.78619
C          0.76903        0.16132        0.32080
C          0.79615       -1.21575        0.16413
N          1.89554       -2.00791        0.51851
C          2.96006       -1.31177        0.94820
N          3.45738       -0.12251        1.11095
C          3.13982        0.73455        0.18846
N          4.16269        1.10662        0.00098
H          5.08063        0.67555       -0.08750
H          4.06998        1.77089       -0.76529
C          1.78335        0.87313       -0.27718
C          1.49530        1.72707       -1.39219
N          1.23518        2.41858       -2.26384
H          3.60792       -2.17992        1.14181
H         -4.73595       -0.74120       -0.73936
