29
Coordinates from ORCA-job ./opt_b97-3c_parallel
N         -1.44213       -3.90923        0.00030
C         -0.99523       -2.85701       -0.01036
C         -0.43523       -1.51865       -0.01151
C          0.95022       -1.44295       -0.00204
C          1.61540       -0.24285        0.00230
C          2.98878       -0.52796        0.00893
C          4.11425        0.37354        0.01341
N          5.01961        1.07101        0.01631
C          3.13884       -1.90739        0.00948
C          1.87833       -2.47884        0.00317
H          1.66691       -3.54594        0.00155
H          4.08303       -2.44735        0.01391
C          0.90282        0.95978        0.00153
C          1.66671        2.19246        0.00869
N          2.25006        3.17574        0.01408
C         -0.52735        0.93723       -0.00631
C         -1.16313        2.19997       -0.00153
C         -2.50025        2.56529       -0.00620
C         -3.62573        1.77046       -0.02207
C         -3.67533        0.39051       -0.03795
N         -4.92938       -0.15602       -0.05574
H         -5.03034       -1.15222        0.10712
H         -5.72683        0.44145        0.13106
C         -2.61077       -0.50647       -0.03701
C         -1.20867       -0.32184       -0.01785
H         -2.98201       -1.52496       -0.05552
H         -4.57585        2.30142       -0.02510
H         -2.69150        3.63623        0.00240
H         -0.55214        3.09477        0.00951
