24
Coordinates from ORCA-job ./opt_b97-3c_parallel
N         -1.28648       -3.77985        0.00175
C         -0.91462       -2.69883        0.00138
C         -0.42260       -1.33907        0.00088
C          0.94427       -1.09239        0.00053
C          1.43442        0.18532        0.00015
N          0.63252        1.26561        0.00015
C         -0.71492        1.07910        0.00040
C         -1.46901        2.26532        0.00024
C         -2.85746        2.44751        0.00018
C         -3.84382        1.46285        0.00050
C         -3.60261        0.05179        0.00132
N         -2.61059       -0.40879        0.00114
C         -1.28083       -0.22199        0.00080
H         -4.32248       -0.75804        0.00206
H         -4.89423        1.74376        0.00030
H         -3.20693        3.47733       -0.00024
H         -0.89509        3.19047       -0.00006
C          2.88006        0.27917       -0.00032
C          3.86973        1.30850       -0.00121
N          4.49675        2.26411       -0.00144
C          3.15000       -1.15306       -0.00021
C          2.01340       -1.94725        0.00032
H          1.98275       -3.03436        0.00043
H          4.13577       -1.61186       -0.00057
