23
Coordinates from ORCA-job ./opt_b97-3c_parallel
N         -0.43364       -4.03469        0.00091
C         -0.39266       -2.89221        0.00072
C         -0.36578       -1.44814        0.00051
C         -1.55781       -0.73879       -0.00005
C         -1.63106        0.61635       -0.00029
N         -2.91837        1.03487       -0.00065
C         -3.57821        0.11870       -0.00070
C         -2.90313       -1.15836       -0.00035
H         -3.34088       -2.15155       -0.00062
H         -4.64052        0.33314       -0.00118
C         -0.45669        1.37107        0.00006
C         -0.53864        2.81579       -0.00041
N         -0.59154        3.95786       -0.00190
C          0.78713        0.70422        0.00049
N          1.94214        1.41501        0.00076
C          3.04677        1.36400        0.00115
C          3.68057        0.06965        0.00136
C          3.12454       -1.25974        0.00163
N          2.02386       -1.36106        0.00132
C          0.83289       -0.71429        0.00079
H          3.64442       -2.21043        0.00140
H          4.76739        0.08489        0.00142
H          3.51144        2.34264        0.00092
