26
Coordinates from ORCA-job ./opt_b97-3c_parallel
N         -1.31547       -3.60457       -0.01208
C         -1.04292       -2.49654       -0.03707
C         -0.71851       -1.08931       -0.05782
C         -1.89393       -0.22655       -0.08588
C         -1.52070        1.15544       -0.01913
N         -2.75653        1.68047        0.01958
C         -3.64174        0.67516       -0.05588
N         -4.66458        1.09895       -0.02882
H         -5.50035        0.51269        0.00764
H         -5.01133        2.05908       -0.05403
C         -3.20049       -0.60978       -0.18294
H         -3.60584       -1.40477        0.44181
C         -0.20539        1.73176       -0.00558
C          0.85700        0.75748       -0.01776
N          2.09288        1.28389        0.00742
C          3.43815        0.96289        0.01865
N          4.03432       -0.28326        0.00318
C          3.10748       -1.30827       -0.02249
C          1.77233       -1.59077       -0.03696
C          0.61461       -0.62737       -0.03935
H          1.50098       -2.64347       -0.05487
H          3.77057       -2.18792       -0.03646
N          4.16648        1.78928        0.04382
H          5.14800        1.51089        0.05152
H          4.16668        2.80766        0.09260
H         -0.03429        2.80499       -0.00079
