29
Coordinates from ORCA-job ./opt_b97-3c_parallel
N         -0.67332       -4.24172        0.55192
C         -0.62098       -3.10862        0.40953
C         -0.57002       -1.67423        0.23812
C         -1.76759       -0.99036        0.13716
C         -1.85418        0.34110       -0.08339
N         -3.14612        0.72763       -0.21526
C         -3.79293       -0.18653       -0.09701
N         -5.15290       -0.14062       -0.17238
H         -5.70565       -0.95888        0.05701
H         -5.62314        0.75527       -0.24190
C         -3.10699       -1.43338        0.14284
H         -3.53215       -2.42137        0.28887
C         -0.69522        1.11494       -0.15561
C         -0.89156        2.50923       -0.49178
N         -1.06535        3.60299       -0.77642
C          0.57705        0.49425        0.02253
C          1.76938        1.26157        0.10521
C          1.93638        2.68023        0.33138
N          2.08556        3.79587        0.53098
C          3.09785        0.75492        0.34136
N          3.66781       -0.16885        0.14260
C          3.15440       -1.13053       -0.01140
N          4.12881       -1.81312       -0.68234
H          5.06431       -1.42696       -0.74652
H          3.99718       -2.79123       -0.91440
C          1.83404       -1.66240        0.19060
C          0.62924       -0.93253        0.15214
H          1.88893       -2.74131        0.31211
H          4.04255        1.28762        0.39953
