27
Coordinates from ORCA-job ./opt_b97-3c_parallel
N          0.89758        3.83787        0.00942
C          0.55501        2.74718        0.01820
C          0.12641        1.36419        0.01530
C         -1.24117        1.12185        0.00445
C         -1.73749       -0.14708       -0.00330
N         -0.93590       -1.22108       -0.00252
C          0.41478       -1.05149        0.00753
C          1.08221       -2.27905        0.00439
C          2.43560       -2.57825        0.01053
C          3.51384       -1.71356        0.02384
C          3.49373       -0.32741        0.03540
N          4.71751        0.28342        0.04797
H          5.54384       -0.27156       -0.14495
H          4.76479        1.28299       -0.11740
C          2.38797        0.52031        0.03460
C          1.00577        0.24587        0.01937
H          2.68469        1.56414        0.04833
H          4.49241       -2.19052        0.02740
H          2.68295       -3.63728        0.00448
H          0.44593       -3.16358       -0.00559
C         -3.18304       -0.23826       -0.01411
C         -4.20506       -1.23541       -0.01614
N         -4.87197       -2.16357       -0.02636
C         -3.44860        1.19447       -0.01217
C         -2.30822        1.98203       -0.00183
H         -2.27386        3.06909        0.00134
H         -4.43046        1.66160       -0.01760
