26
Coordinates from ORCA-job ./opt_b97-3c_parallel
N         -2.05445       -3.73625       -0.00550
C         -1.63325       -2.67429       -0.00652
C         -1.05368       -1.36111       -0.00790
C         -1.96838       -0.24402       -0.01521
C         -1.50103        1.08427       -0.01717
N         -2.64041        1.85387       -0.02473
C         -3.74383        1.00880       -0.02715
N         -4.68730        1.57029       -0.03313
H         -5.55986        1.04571       -0.03480
H         -4.93166        2.55836       -0.03570
N         -3.33573       -0.31299       -0.02126
N         -0.22651        1.26924       -0.01195
C          0.70852        0.36647       -0.00627
C          1.98939        0.93264       -0.00425
C          2.19741        2.35979       -0.00781
N          2.42079        3.48018       -0.01067
C          3.24093        0.22230        0.00078
N          3.50654       -1.12887        0.00638
C          2.59576       -2.16227        0.00813
C          1.22456       -2.17274        0.00365
C          0.31740       -1.04343       -0.00350
H          0.79942       -3.17064        0.00582
H          3.00694       -3.18422        0.01311
N          4.34367        0.33382        0.00288
H          5.32516        0.05609        0.00623
H          4.34898        1.35492       -0.00349
