28
Coordinates from ORCA-job ./opt_b97-3c_parallel
N         -1.27037       -3.86070       -0.25015
C         -0.92420       -2.77313       -0.18836
C         -0.48305       -1.39627       -0.12669
C          0.88366       -1.11483       -0.09135
N          1.91316       -1.99105       -0.10786
C          2.82058       -1.33040       -0.06319
N          4.02002       -1.98304       -0.07176
H          4.88915       -1.46704        0.01483
H          4.05162       -2.99638       -0.08779
C          2.72331        0.11359       -0.00295
C          3.82339        1.02727        0.06347
N          4.59881        1.61079        0.66625
C          1.30833        0.17862       -0.03125
C          0.43765        1.26392       -0.02108
C          0.95615        2.61189        0.02603
N          1.37959        3.67289        0.06074
C         -0.94392        1.00633       -0.06341
N         -1.82557        2.03620       -0.07755
C         -2.89463        2.31665       -0.11388
C         -3.92707        1.31408       -0.19189
C         -3.73003       -0.10815       -0.07637
N         -4.68521       -0.95248        0.40552
H         -4.42305       -1.88460        0.70669
H         -5.56805       -0.57737        0.73394
N         -2.73845       -0.59282       -0.10423
C         -1.40759       -0.33334       -0.10107
H         -4.85855        1.84273       -0.37894
H         -2.82867        3.26089       -0.64120
