23
Coordinates from ORCA-job ./opt_b97-3c_parallel
N         -0.63484       -3.58932       -0.12430
C         -0.46166       -2.46252       -0.07770
C         -0.30267       -1.03939       -0.01427
C         -1.46038       -0.28490        0.05067
N         -2.70556       -0.64037        0.05599
C         -3.24343        0.55065        0.09064
N         -4.34404        0.39169        0.06554
H         -4.86279       -0.46976        0.25774
H         -5.07107        1.07862       -0.15170
C         -2.58808        1.76138        0.17764
C         -1.38296        1.13212        0.12185
N         -0.20623        1.79571        0.13204
C          0.98103        1.07671        0.05292
N          2.10169        1.90543        0.06083
C          3.34429        1.31243       -0.05924
C          4.31231        0.36605       -0.20161
C          3.34236       -0.58759       -0.16992
N          2.10551       -1.19585       -0.11665
C          0.98039       -0.37811       -0.02724
H          3.96303       -1.49532       -0.24557
H          5.16820        0.32259        0.47018
H          4.02563        2.17795       -0.02819
H         -2.82342        2.58336       -0.49776
