25
Coordinates from ORCA-job ./opt_b97-3c_parallel
N         -2.07426       -3.43779       -0.04365
C         -1.59269       -2.40268       -0.02651
C         -1.03619       -1.08501       -0.00615
C         -1.99783       -0.01173       -0.00176
C         -1.69309        1.39150        0.01833
N         -2.72296        2.30436        0.01797
C         -3.80820        1.56256       -0.00179
C         -3.45035        0.28663       -0.01288
H         -4.19582       -0.50590       -0.02987
H         -4.82534        1.98510       -0.00745
N         -0.40143        1.50252        0.03268
C          0.61959        0.70042        0.02445
C          1.92185        1.29347        0.03195
C          3.10308        0.63541        0.01878
N          4.15113        1.47310        0.11318
H          4.06796        2.45070       -0.16066
H          5.08774        1.15770       -0.13694
C          3.56532       -0.63602        0.02234
C          2.73940       -1.80063        0.01186
C          1.29541       -1.80624        0.00031
C          0.36718       -0.67678        0.00635
H          0.88538       -2.80979       -0.01063
H          3.24072       -2.76435        0.01082
H          4.63375       -0.84596        0.02889
H          1.94145        2.38207        0.04599
