26
Coordinates from ORCA-job ./opt_b97-3c_parallel
N         -0.74956       -3.58236        0.02112
C         -0.72522       -2.43937        0.02183
C         -0.71181       -0.99208        0.01638
C         -1.94852       -0.36265        0.00296
C         -2.10891        0.97714       -0.00854
N         -3.40915        1.34171       -0.02111
C         -4.00901        0.38490       -0.01860
C         -3.26899       -0.85632       -0.00408
H         -3.65413       -1.87098       -0.00033
H         -5.08042        0.54616       -0.02834
C         -0.98660        1.78585       -0.00821
C          0.30539        1.22472        0.00425
C          1.31014        2.19867       -0.00065
C          2.69006        2.06868        0.00477
C          3.45126        0.91484        0.01965
C          3.00993       -0.39968        0.03497
N          3.99180       -1.35192        0.05055
H          4.94675       -1.07358       -0.14610
H          3.73503       -2.32080       -0.10433
C          1.69861       -0.87237        0.03600
C          0.46487       -0.19064        0.01896
H          1.66432       -1.95705        0.05250
H          4.52877        1.07007        0.02201
H          3.25103        3.00042       -0.00334
H          0.98198        3.23634       -0.01231
H         -1.13113        2.86439       -0.01879
