30
Coordinates from ORCA-job ./opt_b97-3c_parallel
N         -0.59382       -4.32953       -0.38870
C         -0.35218       -3.21776       -0.27938
C         -0.03114       -1.81193       -0.15217
C          1.31536       -1.46150       -0.10173
C          1.73070       -0.15297        0.01787
C          3.12806       -0.15640        0.06760
C          4.02977        0.95770        0.22032
N          4.75895        1.82819        0.34866
C          3.55324       -1.47487       -0.02729
C          2.43336       -2.28659       -0.13587
H          2.44116       -3.37084       -0.21904
H          4.58572       -1.81550       -0.01032
C          0.79580        0.88336        0.06506
C          1.22019        2.26561        0.15490
N          1.53990        3.36089        0.22093
C         -0.57773        0.55810        0.01678
N         -1.47017        1.56017        0.03632
C         -2.50484        1.90259        0.01345
N         -2.64463        3.21805       -0.31695
H         -1.82876        3.76623       -0.56668
H         -3.56167        3.59529       -0.52795
C         -3.60957        1.00812        0.17099
C         -3.53514       -0.38482        0.12068
N         -4.72140       -1.05512        0.23715
H         -4.69804       -2.05388        0.41213
H         -5.53815       -0.54098        0.54902
C         -2.37788       -1.16961       -0.02512
C         -1.01075       -0.79097       -0.06354
H         -2.60122       -2.23127       -0.07017
H         -4.56756        1.50602        0.30738
