27
Coordinates from ORCA-job ./opt_b97-3c_parallel
N          1.31219        3.53333        0.10868
C          1.17148        2.39942        0.06833
C          1.01549        0.96310        0.02050
C          2.14202        0.15329        0.00515
C          2.09089       -1.19951       -0.04081
N          3.32062       -1.75741       -0.04599
C          4.05908       -0.90335       -0.00681
C          3.52140        0.43801        0.03170
H          4.05805        1.38015        0.07833
H          5.09164       -1.23188        0.00042
C          0.85658       -1.83426       -0.06880
C         -0.32745       -1.07608       -0.04539
C         -1.51989       -1.82530       -0.04695
C         -2.85407       -1.39017       -0.00317
N         -3.81935       -2.35783        0.02578
H         -4.77099       -2.08717        0.24853
H         -3.54247       -3.31529        0.21244
C         -3.29712       -0.06692        0.01905
C         -2.44475        1.08186       -0.01719
N         -1.35344        1.10018       -0.00082
C         -0.24788        0.33861       -0.00791
N         -2.90827        2.35938       -0.12969
H         -2.26329        3.13841       -0.05593
H         -3.90164        2.54795       -0.05829
H         -4.36117        0.15756        0.05754
H         -1.39570       -2.90671       -0.07105
H          0.82338       -2.92125       -0.10067
