26
Coordinates from ORCA-job ./opt_b97-3c_parallel
N         -0.59674       -4.26387        0.71604
C         -0.67577       -3.14162        0.51429
C         -0.75794       -1.71659        0.27114
C         -2.02190       -1.15471        0.11267
C         -2.17672        0.15881       -0.14691
N         -3.47933        0.42560       -0.30675
C         -3.50287       -0.68273       -0.08753
N         -3.21851       -1.75382        0.13648
H         -4.57611       -0.81526       -0.14622
C         -1.08573        1.02890       -0.21810
C         -1.38104        2.38823       -0.61877
N         -1.62789        3.45210       -0.95733
C          0.22393        0.52420        0.00835
C          1.34372        1.39081        0.11078
C          1.36257        2.80765        0.39970
N          1.38719        3.92196        0.65418
C          2.70450        0.99865        0.38063
N          3.33540        0.12128        0.15545
C          2.91375       -0.88506        0.00415
N          3.88962       -1.47198       -0.75069
H          4.78916       -1.01606       -0.85989
H          3.81330       -2.44960       -1.00889
C          1.64425       -1.51371        0.24544
C          0.38400       -0.88861        0.17575
H          1.79054       -2.57963        0.40185
H          3.59138        1.61316        0.50466
