25
Coordinates from ORCA-job ./opt_b97-3c_parallel
N         -1.67307       -3.39277       -0.69049
C         -1.47201       -2.29375       -0.45908
C         -1.14352       -0.92899       -0.18033
C         -2.17688        0.07320       -0.04496
N         -3.52529       -0.21940       -0.04012
C         -4.26055        0.87173        0.12925
C         -3.33880        1.82482        0.20168
C         -2.09127        1.41732        0.09439
N         -0.82810        1.79979        0.04492
C          0.29071        1.06605       -0.05500
N          1.47105        1.80481       -0.14317
C          2.68125        1.13014       -0.09332
N          3.42066        1.94809       -0.21058
H          3.24985        2.94707       -0.35001
H          4.43855        1.86379       -0.26146
N          3.45247       -0.01468        0.04532
C          2.70611       -1.17367        0.19810
N          3.45093       -1.98500        0.34304
H          3.18047       -2.95826        0.17196
H          4.39656       -2.06516        0.72861
C          1.35211       -1.35405        0.12975
C          0.21115       -0.39150       -0.04683
H          0.97515       -2.37391        0.18331
H         -3.60333        2.87313        0.32577
H         -5.36040        0.82828        0.16763
