26
Coordinates from ORCA-job ./opt_b97-3c_parallel
N         -1.32394       -3.55313       -0.35386
C         -1.05123       -2.44976       -0.23145
C         -0.68671       -1.05774       -0.08636
C         -1.70276       -0.10048       -0.04140
C         -1.38362        1.21316        0.08725
C         -2.62299        1.87853        0.10268
C         -3.51253        0.74772       -0.02966
N         -4.86461        0.91935       -0.05246
H         -5.47972        0.11651       -0.12657
H         -5.27228        1.84166        0.05019
N         -3.04397       -0.27490       -0.10719
H         -2.86987        2.93091        0.19834
C         -0.08516        1.68271        0.16527
C          0.95726        0.75245        0.12380
N          2.22357        1.22560        0.18441
C          3.22681        0.75318        0.16058
N          3.58525       -0.29715        0.20344
C          3.10283       -1.29614        0.14345
C          1.69540       -1.59375        0.00522
C          0.66035       -0.63499        0.01165
H          1.52304       -2.66415       -0.07076
H          3.86326       -1.85983        0.67097
N          4.18570        1.60341       -0.30070
H          5.14618        1.29049       -0.38069
H          3.98075        2.58881       -0.41650
H          0.11554        2.74827        0.25574
