26
Coordinates from ORCA-job ./opt_b97-3c_parallel
N         -1.61820       -3.70055        0.01054
C         -1.39205       -2.57992        0.00166
C         -1.08525       -1.16352       -0.00554
C         -2.17588       -0.29963        0.00103
C         -1.93489        1.02261        0.00095
N         -0.73352        1.59942        0.00092
C          0.38169        0.80835       -0.00531
C          1.59700        1.53812       -0.00147
C          1.55268        2.99157        0.01166
N          1.53664        4.13491        0.02219
C          2.91032        1.07377       -0.00678
C          3.39243       -0.21915       -0.02386
C          2.67180       -1.39823       -0.03769
N          3.41666       -2.54536       -0.05992
H          4.41544       -2.48755        0.10667
H          2.95557       -3.43584        0.09321
C          1.29027       -1.55833       -0.03165
C          0.23799       -0.61860       -0.01351
H          1.02173       -2.60935       -0.04587
H          4.47754       -0.30855       -0.02904
H          3.69421        1.83070        0.00093
C         -3.20571        1.62084        0.00918
C         -4.03790        0.43889        0.01228
N         -3.50556       -0.55850        0.00886
H         -5.11854        0.36062        0.01632
H         -3.50614        2.66348        0.00838
