32
Coordinates from ORCA-job ./opt_b97-3c_parallel
N         -0.33065       -4.25912       -0.05807
C         -0.16057       -3.12911       -0.06145
C          0.05844       -1.69653       -0.04645
C          1.37734       -1.23626       -0.07258
C          1.65516        0.11305       -0.03628
C          3.05333        0.46365       -0.04115
C          4.02637        1.46451        0.27685
N          4.79667        2.22680       -0.08564
C          3.38606       -0.94342       -0.08434
N          4.66565       -1.42463       -0.15646
H          4.83609       -2.41566       -0.02570
H          5.43634       -0.78098       -0.00297
C          2.52495       -2.09694       -0.15086
H          2.65136       -3.03772        0.37609
C          0.61580        1.04814        0.00105
C          0.96106        2.45465        0.01713
N          1.21865        3.56741        0.03065
C         -0.72991        0.61701        0.01296
C         -1.73713        1.60272        0.04247
C         -3.15909        1.39087        0.03918
N         -3.85291        0.53403        0.02496
C         -3.54744       -0.52542        0.03976
N         -4.78218       -1.11195        0.03165
H         -5.61146       -0.54216       -0.09422
H         -4.86755       -2.11529       -0.08630
C         -2.32747       -1.28801        0.02058
C         -1.01340       -0.77677       -0.00305
H         -2.56388       -2.34925        0.01709
N         -4.04936        2.42829        0.03354
H         -3.71815        3.38171       -0.06441
H         -5.03957        2.24804       -0.08786
H         -1.54161        2.67215        0.05837
