26
Coordinates from ORCA-job ./opt_b97-3c_parallel
N         -1.15734       -3.37348        0.45650
C         -1.49026       -2.41916       -0.07308
C         -1.14055       -1.02569       -0.05955
C         -2.17217       -0.09380       -0.02609
C         -1.92542        1.29501       -0.04036
N         -3.21240        1.80714       -0.02706
C         -4.14599        0.85493       -0.00003
C         -3.50528       -0.31299        0.00449
H         -3.99570       -1.28401        0.03780
H         -5.19671        1.18621        0.01773
N         -0.70281        1.72321       -0.06811
C          0.34861        0.96107       -0.05794
C          1.47964        1.77513       -0.05972
C          2.84976        1.32242        0.01588
N          3.61298        2.12107        0.02800
H          3.40655        3.11870        0.09389
H          4.62400        2.05147        0.15345
C          3.32560        0.05209        0.13723
C          2.51142       -1.01303       -0.05234
N          1.20562       -1.42946       -0.13542
C          0.22229       -0.49883       -0.07113
N          2.85169       -2.06048       -0.17588
H          3.84536       -2.06328       -0.41485
H          2.61131       -3.04774       -0.06162
H          4.36149       -0.11627        0.44386
H          1.35695        2.86029       -0.09947
