25
Coordinates from ORCA-job ./opt_b97-3c_parallel
N         -1.15809       -3.69100       -0.27483
C         -0.90028       -2.58344       -0.16460
C         -0.61441       -1.17511       -0.02760
C         -1.66564       -0.25523        0.00286
C         -1.41396        1.09747        0.13308
N         -2.54236        1.81402        0.15309
C         -3.38905        0.71954        0.02179
N         -4.39252        1.19080        0.04232
H         -4.63187        2.11539        0.40278
H         -5.27557        0.77414       -0.25438
C         -3.09733       -0.61714       -0.09318
H         -3.87447       -1.37272       -0.19519
N         -0.15867        1.58659        0.22838
C          0.86765        0.70581        0.20181
N          2.04527        1.27337        0.28231
C          3.29967        0.94976        0.21414
N          3.63152        1.80242       -0.39877
H          3.52194        2.80881       -0.50538
H          4.59193        1.58196       -0.65576
C          3.85471       -0.28954        0.36046
C          3.12089       -1.42620        0.17889
N          1.74745       -1.51937        0.07615
C          0.69364       -0.68425        0.08186
H          3.68027       -2.37268        0.13134
H          4.88421       -0.37431        0.70204
