28
Coordinates from ORCA-job ./opt_b97-3c_parallel
N          1.05724        3.81042        0.00936
C          0.90587        2.67725       -0.00213
C          0.69273        1.24320       -0.01210
C          1.83711        0.45231       -0.00783
C          1.68090       -0.88301       -0.00939
N          0.51925       -1.53626       -0.00679
C         -0.64455       -0.81913       -0.01020
C         -1.80978       -1.62641       -0.00182
C         -1.67100       -3.07386        0.01440
N         -1.58013       -4.21352        0.02863
C         -3.15050       -1.24849       -0.00390
C         -3.71550        0.01040       -0.02153
C         -3.07260        1.23360       -0.03918
N         -3.89011        2.33007       -0.06002
H         -4.88148        2.20801        0.11609
H         -3.48614        3.24781        0.09352
C         -1.70446        1.48321       -0.03675
C         -0.59309        0.61411       -0.01925
H         -1.50495        2.54938       -0.05389
H         -4.80416        0.02898       -0.02358
H         -3.88346       -2.05480        0.00747
C          2.98698       -1.39977       -0.00185
C          3.73933       -0.16563        0.00334
N          5.10291       -0.19078        0.01240
H          5.60363       -1.07243       -0.00055
H          5.63256        0.67372        0.00329
N          3.14804        0.79708        0.00075
H          3.35201       -2.42166       -0.00244
