32
Coordinates from ORCA-job ./opt_b97-3c_parallel
N         -1.14591       -4.05749       -0.49349
C         -1.01835       -2.93048       -0.35050
C         -0.86965       -1.49789       -0.18615
C         -2.01096       -0.70461       -0.16312
C         -1.90203        0.64128        0.09195
C         -3.15575        1.33439        0.22899
C         -3.85602        0.10334       -0.02982
N         -5.20424        0.31501        0.01618
H         -5.55351        1.26703        0.03780
H         -5.83031       -0.42046       -0.29290
C         -3.34670       -1.21955       -0.28451
H         -3.70696       -1.88639       -1.06237
H         -3.39887        2.05348        1.00686
C         -0.64787        1.25317        0.22141
C         -0.68128        2.60713        0.74213
N         -0.72694        3.66376        1.17623
C          0.55336        0.50213        0.02812
C          0.39955       -0.90586       -0.04108
N          1.45129       -1.72491        0.07065
C          2.50889       -1.90987        0.23211
N          2.81507       -3.06850        0.88195
H          2.11868       -3.80129        0.96278
H          3.78198       -3.29991        1.08125
C          3.43007       -0.83463        0.06640
C          3.12675        0.51369       -0.13594
N          4.25734        1.27366       -0.33153
H          4.15436        2.23011       -0.65568
H          5.14167        0.80609       -0.49732
C          1.83790        1.12809       -0.14270
C          1.88013        2.51743       -0.57443
N          1.93439        3.59986       -0.93976
H          4.46075       -1.18515        0.04915
