29
Coordinates from ORCA-job ./opt_b97-3c_parallel
N         -2.15766       -3.75891        0.89880
C         -1.85678       -2.68429        0.65058
C         -1.45527       -1.32667        0.34615
C         -2.46086       -0.38052        0.17475
C         -2.13010        0.88775       -0.15263
C         -3.37538        1.53220       -0.31789
C         -4.28173        0.44990       -0.01438
N         -3.80336       -0.54073        0.23328
H         -5.36527        0.44265        0.00148
H         -3.62043        2.55485       -0.58685
C         -0.82664        1.34918       -0.27302
C         -0.68425        2.70089       -0.76728
N         -0.59450        3.76329       -1.17694
C          0.23779        0.43924       -0.02617
C          1.58809        0.88743        0.06457
C          1.98984        2.25131        0.35200
N          2.31361        3.31812        0.60676
C          2.73253        0.00573        0.21575
N          2.98979       -1.04651        0.00155
C          2.23971       -1.84024       -0.14330
N          2.83725       -2.72287       -0.99679
H          3.82432       -2.62997       -1.21110
H          2.37374       -3.59233       -1.23686
C          0.86200       -1.96460        0.24183
C         -0.10118       -0.93867        0.18850
H          0.63940       -3.00911        0.44410
N          4.01295        0.35681        0.57258
H          4.24866        1.33670        0.68752
H          4.77177       -0.30228        0.44175
