22
Coordinates from ORCA-job ./opt_b97-3c_parallel
N         -0.96507       -3.55554        0.00165
C         -0.89855       -2.41599        0.00082
C         -0.60146       -1.01078       -0.00016
C         -1.68347       -0.14484       -0.00034
C         -1.48957        1.25181        0.00015
N         -2.79524        1.71517        0.00054
C         -3.68586        0.72096        0.00083
C         -3.00481       -0.42188        0.00082
H         -3.45441       -1.41312        0.00168
H         -4.73468        1.05677        0.00136
N         -0.28564        1.73237       -0.00045
C          0.78464        0.99116       -0.00074
C          1.89328        1.83818       -0.00060
C          3.27413        1.43291       -0.00004
C          3.80523        0.18602        0.00004
C          3.00485       -0.89732        0.00088
N          1.73014       -1.38182        0.00090
C          0.68330       -0.47209       -0.00020
H          3.55299       -1.85249        0.00208
H          4.88605        0.05830       -0.00014
H          3.98672        2.25261        0.00043
H          1.74472        2.91641       -0.00039
