34
Coordinates from ORCA-job ./opt_b97-3c_parallel
N         -2.54987       -4.07615       -0.30772
C         -2.39522       -2.95245       -0.15858
C         -2.21640       -1.51716        0.02595
C         -3.38202       -0.84857        0.45321
C         -3.61333        0.51706        0.49088
C         -2.81553        1.53986        0.01184
N         -3.48362        2.73615       -0.11159
H         -3.02545        3.50507       -0.59063
H         -4.49659        2.74044       -0.06486
C         -1.44674        1.47800       -0.29049
C         -0.94484        2.61350       -1.05617
N         -0.56089        3.49597       -1.67405
C         -0.54891        0.40966       -0.02756
C         -0.90682       -0.96933       -0.09502
C          0.15494       -1.89217       -0.27162
C          1.48567       -1.51637       -0.24987
C          1.82988       -0.22424        0.04204
C          3.23952        0.03931        0.18366
C          4.28814        1.01162        0.12138
N          5.14956        1.48472        0.70514
C          3.42664       -1.36222       -0.11761
N          4.63772       -1.99999       -0.10444
H          4.70796       -2.93502       -0.49022
H          5.48030       -1.43520       -0.06538
C          2.54463       -2.46705       -0.40370
H          2.65116       -3.16197       -1.23223
C          0.82583        0.73523        0.18781
C          1.23975        2.00555        0.75724
N          1.56534        2.99677        1.22401
H         -0.00361       -2.95742       -0.40848
H         -4.61572        0.81396        0.80214
N         -4.48973       -1.57580        0.82689
H         -4.49834       -2.57953        0.67550
H         -5.37551       -1.10034        0.95932
