30
Coordinates from ORCA-job ./opt_b97-3c_parallel
N         -1.68108       -3.87906        0.00255
C         -1.38472       -2.77554        0.01532
C         -1.02587       -1.37257        0.02459
C         -2.07556       -0.47091        0.02601
C         -1.88709        0.86404        0.02816
N         -0.64460        1.36256        0.02027
C          0.47045        0.56408        0.01256
C          1.69754        1.28762       -0.01226
C          1.60292        2.74813       -0.01770
N          1.54669        3.89042       -0.01766
C          3.02157        0.79696       -0.03616
C          3.45244       -0.52131       -0.01331
C          2.70907       -1.68549        0.02935
N          3.43029       -2.84848        0.05594
H          4.42743       -2.81343       -0.12661
H          2.94905       -3.73100       -0.07969
C          1.32892       -1.82093        0.04078
C          0.30346       -0.85819        0.02391
H          1.03508       -2.86522        0.06931
H          4.53315       -0.66575       -0.02882
N          4.07387        1.68390       -0.08604
H          5.01609        1.34642        0.07552
H          3.88941        2.67524        0.03182
N         -3.07201        1.51224        0.03282
C         -3.89611        0.74493        0.03060
N         -5.21747        1.08114        0.02373
H         -5.49400        2.05630        0.06248
H         -5.93589        0.36673        0.05249
C         -3.47694       -0.63623        0.02680
H         -4.09240       -1.53031        0.01673
