26
Coordinates from ORCA-job ./opt_b97-3c_parallel
N         -0.23806       -4.04053       -0.16725
C          0.02770       -2.93183       -0.11837
C          0.29823       -1.52568       -0.07129
C          1.58545       -1.08188       -0.08357
C          1.85556        0.22423       -0.06073
N          0.96201        1.21980       -0.05003
C         -0.35834        0.90822       -0.04652
N         -1.20937        2.01918       -0.07803
C         -2.58452        1.89674       -0.04624
N         -3.02368        2.91219       -0.11453
H         -4.01851        3.15196       -0.09633
H         -2.55887        3.80499       -0.29965
N         -3.65169        1.03637        0.03845
C         -3.18341       -0.25354        0.08438
N         -3.92651       -1.06675        0.19378
H         -4.85821       -0.89051        0.57842
H         -3.90388       -2.08074        0.05447
N         -2.06270       -1.05428        0.05383
C         -0.76553       -0.52433       -0.02399
C          3.26906        0.40170        0.00656
C          3.87316        1.68900        0.14699
N          4.30548        2.73755        0.27808
C          3.75920       -0.87480        0.00031
C          2.74015       -1.73638       -0.04378
H          2.85430       -2.81966       -0.03493
H          4.81290       -1.14576        0.04662
