29
Coordinates from ORCA-job ./opt_b97-3c_parallel
N         -2.09981       -3.81553       -0.36440
C         -1.69445       -2.75348       -0.24390
C         -1.16308       -1.41339       -0.09622
C         -2.07135       -0.36296       -0.05415
C         -1.61892        0.89859        0.12364
C         -2.79512        1.67656        0.18276
C         -3.79586        0.65435       -0.00813
N         -3.42251       -0.40251       -0.12126
N         -5.11980        0.97480       -0.04337
H         -5.79779        0.26940       -0.31102
H         -5.40581        1.94706       -0.06776
H         -2.93899        2.74474        0.31214
C         -0.27880        1.24218        0.21203
C         -0.01621        2.62617        0.54070
N          0.16414        3.72006        0.81873
C          0.69749        0.21182        0.08910
C          2.08644        0.51570       -0.00740
C          2.64171        1.80561       -0.37269
N          3.09001        2.81036       -0.68447
C          3.14092       -0.48365       -0.04675
N          3.32173       -1.54723        0.17523
C          2.48754       -2.24440        0.35149
C          1.08356       -2.25825        0.05891
C          0.22599       -1.14264        0.01809
H          0.76116       -3.29522        0.01250
H          3.05709       -2.94428        0.95308
N          4.47698       -0.27495       -0.29574
H          4.82264        0.66402       -0.46318
H          5.15062       -1.02313       -0.17211
