29
Coordinates from ORCA-job ./opt_b97-3c_parallel
N         -0.18815       -4.24708       -0.01194
C         -0.12981       -3.10496        0.00131
C         -0.05426       -1.65888        0.00275
C          1.19756       -1.04804       -0.00363
N          2.41442       -1.63722       -0.01569
C          3.13109       -0.77202       -0.01210
N          4.45911       -1.09122       -0.02229
H          4.75396       -2.05905       -0.08927
H          5.16317       -0.36167       -0.05952
C          2.66770        0.60026        0.00511
C          3.52505        1.74626        0.01331
N          4.13369        2.70860        0.11095
C          1.28037        0.30856        0.00711
C          0.16584        1.14317        0.01058
C          0.38745        2.57214        0.02868
N          0.55503        3.70214        0.05521
C         -1.12347        0.55536       -0.00029
C         -2.25691        1.40680       -0.03466
C         -3.62661        1.09442       -0.06226
N         -4.49392        2.14875       -0.13600
H         -5.48710        1.98725       -0.00999
H         -4.13876        3.09382       -0.03775
C         -4.20433       -0.17592       -0.02784
C         -3.50452       -1.42075        0.05424
N         -2.41362       -1.46577        0.03425
C         -1.21719       -0.85926        0.01086
H         -3.90585       -2.41172        0.22980
H         -5.28476       -0.30143       -0.05457
H         -2.07500        2.47700       -0.06003
