33
Coordinates from ORCA-job ./opt_b97-3c_parallel
N         -5.43941       -0.00062        0.07521
C         -4.32659       -0.00629        0.34090
C         -2.91152        0.00060        0.11508
C         -2.11039        1.19320        0.03447
N         -2.66953        2.44290        0.00427
H         -3.66853        2.52636        0.16173
H         -2.08634        3.23810        0.23988
C         -0.74897        0.72012        0.01961
C         -0.74767       -0.71439        0.01745
C         -2.10945       -1.19003        0.01947
N         -2.66198       -2.44104       -0.05106
H         -3.66607       -2.52025       -0.17351
H         -2.08180       -3.21314       -0.35969
C          0.54928       -1.35345       -0.00876
N          0.38859       -2.71322        0.06245
H         -0.52286       -3.06334        0.33517
H          1.19395       -3.27316        0.31803
C          1.79804       -0.69976       -0.02848
C          2.92976       -1.53061       -0.13161
C          4.28386       -1.22538       -0.14460
C          4.89648        0.00522       -0.00512
C          4.28362        1.23549        0.13691
C          2.92938        1.53984        0.13189
C          1.79789        0.70795        0.03890
C          0.54846        1.36056        0.02903
N          0.38625        2.71955       -0.05166
H         -0.52609        3.06537       -0.32652
H          1.18971        3.27603       -0.32014
H          2.76435        2.60688        0.24211
H          4.95605        2.08337        0.24748
H          5.98412        0.00562       -0.00819
H          4.95599       -2.07268       -0.25998
H          2.76489       -2.59754       -0.24187
