28
Coordinates from ORCA-job ./opt_b97-3c_parallel
N          2.52457        3.47769       -0.02367
C          2.07617        2.42685       -0.00125
C          1.51092        1.09390        0.00960
C          2.41279        0.04433        0.00371
C          2.02621       -1.24638        0.00656
N          0.72289       -1.55404        0.00397
C         -0.25973       -0.59597        0.00404
C         -1.58273       -1.12408       -0.01709
C         -1.71086       -2.58155       -0.02417
N         -1.82967       -3.71915       -0.02478
C         -2.81728       -0.43762       -0.03395
C         -3.04340        0.93093       -0.00337
C         -2.13152        1.96877        0.04111
N         -2.66526        3.22847        0.07750
H         -3.65600        3.34874       -0.10349
H         -2.05338        4.02570       -0.05977
C         -0.74720        1.89187        0.04539
C          0.12021        0.78493        0.01772
H         -0.29897        2.87946        0.07728
H         -4.08964        1.23798       -0.01316
N         -3.99190       -1.15426       -0.08596
H         -3.95880       -2.16361        0.01657
H         -4.87100       -0.68023        0.08850
N          3.10349       -2.06061        0.00512
C          4.03884       -1.43070        0.00124
C          3.82269       -0.00343       -0.00258
H          4.56464        0.78822       -0.01185
H          4.96770       -1.98833       -0.00189
