30
Coordinates from ORCA-job ./opt_b97-3c_parallel
N          0.85771        3.99024       -1.21461
C          0.08482        3.32408       -0.69923
C         -0.12228        1.92934       -0.42060
C         -1.43706        1.49329       -0.48170
C         -1.80862        0.23719        0.03706
C         -3.17585        0.20477        0.14223
C         -4.23983       -0.63749        0.59146
N         -4.55500       -1.38701        1.39419
C         -3.59826        1.42653       -0.33041
C         -2.57635        2.20112       -0.69734
H         -2.65508        3.20655       -1.10613
H         -4.64131        1.73628       -0.39459
C         -0.80353       -0.68536        0.47512
C         -1.11034       -1.86903        1.21764
N         -1.30331       -2.82227        1.81574
C          0.50324       -0.42281        0.14915
C          0.83009        0.91451        0.01504
N          2.01560        1.49724        0.32214
C          3.02349        0.62503        0.69780
N          3.26119       -0.64973        0.77026
C          2.70947       -1.47342       -0.07071
N          3.62841       -2.04628       -0.28979
H          3.15898       -2.84260       -0.72257
H          4.62742       -2.20523       -0.41946
C          1.32111       -1.36243       -0.43819
C          0.78534       -2.22543       -1.44688
N          0.34990       -2.93718       -2.22596
N          3.76742        1.40552        0.93107
H          3.77272        2.41783        1.05782
H          4.62730        1.06378        1.35996
