26
Coordinates from ORCA-job ./opt_b97-3c_parallel
N          0.10347       -3.28968       -0.39134
C         -0.39825       -2.40839        0.13445
C         -0.40798       -0.97090        0.05521
C         -1.73814       -0.39539        0.05517
C         -1.88118        1.01870       -0.01818
C         -3.15357        1.49185        0.01812
C         -3.51022        0.16821        0.11885
N         -4.61237        0.07113        0.19727
H         -5.26014        0.84338        0.34716
H         -5.18558       -0.75970        0.05451
C         -2.91807       -1.07323        0.12942
H         -3.17337       -1.82857       -0.61370
H         -3.44769        2.22127        0.77340
C         -0.71266        1.84465       -0.12657
C          0.54040        1.27940       -0.12600
N          1.59141        2.19359       -0.23446
C          2.89355        1.73431       -0.19430
N          3.79728        0.69753       -0.07310
C          3.15535       -0.51733        0.05265
N          3.93264       -1.28229        0.21013
H          4.91349       -1.12303        0.43765
H          3.71992       -2.23409        0.50657
N          1.87961       -0.73186        0.01974
C          0.71356       -0.15741       -0.01495
H          3.43117        2.68882       -0.30781
H         -0.84114        2.92193       -0.19574
