34
Coordinates from ORCA-job ./opt_b97-3c_parallel
N         -5.72626       -0.08344        0.31594
C         -4.60400       -0.21803        0.14463
C         -3.17811       -0.11711        0.21822
C         -2.46088       -1.33598       -0.03331
N         -2.80014       -2.65720       -0.12634
H         -3.74296       -2.93084        0.13032
H         -2.06745       -3.35502       -0.06163
C         -1.11691       -0.83390       -0.09681
C         -1.09055        0.59856        0.03340
C         -2.43158        1.10756        0.14603
N         -2.98444        2.35995        0.16734
H         -3.99597        2.43591        0.18596
H         -2.46014        3.12309       -0.24467
C          0.21518        1.21805        0.06400
N          0.17318        2.57795        0.21594
H          1.03032        3.05332        0.47808
H         -0.70551        2.99776        0.50055
C          1.42206        0.50839       -0.00574
C          2.67272        1.23933       -0.02205
N          3.69995        1.09445        0.35695
C          4.15397        0.12096        0.61857
C          3.85288       -1.22917        0.22405
C          2.56898       -1.70002       -0.07204
N          2.48478       -3.04781       -0.30355
H          3.34501       -3.57029       -0.42557
H          1.64741       -3.41013       -0.74503
C          1.40279       -0.89496       -0.08863
C          0.15143       -1.51577       -0.17138
H          0.02769       -2.59322       -0.23591
H          4.70733       -1.90165        0.25154
H          5.04274        0.49826        1.11033
N          2.96881        2.19993       -0.95232
H          3.84164        2.71035       -0.88051
H          2.21170        2.63014       -1.47194
