28
Coordinates from ORCA-job ./opt_b97-3c_parallel
N         -0.61821       -4.00701        0.27018
C         -0.62613       -2.87097        0.15371
C         -0.61749       -1.43377        0.03291
C         -1.92798       -0.79697        0.04280
C         -3.16960       -1.36142        0.08571
C         -3.81359       -0.15332       -0.05202
N         -4.89526        0.08545       -0.10040
H         -5.39527        0.93677       -0.36673
H         -5.63304       -0.58653        0.12344
N         -3.11490        0.99748       -0.14162
C         -1.83257        0.61515       -0.07837
C         -0.66245        1.37525       -0.08231
C         -0.73197        2.81122       -0.20278
N         -0.76589        3.94657       -0.31624
C          0.56859        0.70401       -0.00381
N          1.72459        1.39738        0.09205
C          3.09312        1.18280        0.14793
N          3.61315        2.14521        0.30203
H          3.31651        3.11541        0.42765
H          4.59525        2.13784        0.58612
N          3.81116       -0.00138        0.01293
C          3.03500       -1.14980       -0.10542
N          3.68048       -2.01947       -0.32932
H          3.41532       -2.98694       -0.52514
H          4.68041       -1.98133       -0.53962
N          1.74965       -1.33621       -0.01654
C          0.59049       -0.70551        0.00355
H         -3.44271       -2.05349        0.88093
