25
Coordinates from ORCA-job ./opt_b97-3c_parallel
N          0.43158        3.99443        0.00205
C          0.37486        2.85222        0.00189
C          0.28600        1.40778        0.00197
C          1.47552        0.67787        0.00417
C          1.47476       -0.67026        0.00483
N          2.74088       -1.11091        0.00770
C          2.93412        0.00338        0.00725
N          4.30409       -0.00740        0.00851
H          4.81319       -0.88445        0.00923
H          4.82692        0.86148        0.00923
N          2.74160        1.11769        0.00616
C          0.28538       -1.39953        0.00274
C          0.37239       -2.84431        0.00278
N          0.42527       -3.98612        0.00247
C         -0.94841       -0.70839        0.00073
C         -2.13252       -1.47064       -0.00105
C         -3.47777       -0.96663       -0.00281
N         -3.99613        0.00442       -0.00286
C         -3.47698        0.97526       -0.00188
C         -2.13217        1.48004        0.00000
C         -0.94803        0.71733        0.00095
H         -2.16282        2.56654        0.00002
H         -4.40383        1.53911       -0.00312
H         -4.40349       -1.53161       -0.00370
H         -2.16387       -2.55712       -0.00132
