29
Coordinates from ORCA-job ./opt_b97-3c_parallel
N         -0.94898       -4.12768        0.12077
C         -0.53315       -3.06369        0.11996
C         -0.03890       -1.70634        0.12371
C          1.31433       -1.45941        0.27924
C          1.84887       -0.17399        0.13125
C          3.24678       -0.33289       -0.13358
C          4.18466        0.70412       -0.43725
N          4.94262        1.53261       -0.64266
C          3.69277       -1.62593       -0.05366
C          2.49769       -2.26474        0.15876
H          2.46898       -3.34363        0.27516
H          4.57173       -1.87896        0.53716
C          1.01307        0.98548       -0.06101
C          1.54377        2.32260       -0.18607
N          1.93608        3.38933       -0.29982
C         -0.38575        0.74760       -0.04762
C         -1.35399        1.90462       -0.06970
C         -2.71464        1.89193        0.05147
N         -3.77813        1.00626        0.03100
C         -3.37750       -0.31020       -0.11258
N         -4.21467       -1.02207       -0.19239
H         -4.29331       -1.98127       -0.52932
H         -5.13588       -0.60154       -0.31040
N         -2.17712       -0.79642       -0.11985
C         -0.88799       -0.58488       -0.00010
N         -3.43979        2.68942        0.28409
H         -2.79332        3.44947        0.49413
H         -4.33972        2.97345        0.67073
H         -0.89141        2.88528       -0.13572
