21
Coordinates from ORCA-job ./opt_b97-3c_parallel
N         -1.11516       -3.55036        0.04149
C         -0.91256       -2.42569        0.01715
C         -0.63616       -1.00718       -0.00308
C         -1.78006       -0.12957        0.00908
N         -3.10394       -0.44464       -0.00749
C         -3.56245        0.82132       -0.00002
N         -2.76018        1.85729        0.01762
C         -1.60681        1.27287        0.01932
C         -0.33878        1.81673        0.02434
C          0.79350        0.90929        0.01402
N          1.83878        1.77311        0.05617
C          3.14653        1.42973        0.05457
N          3.81654        0.22313       -0.02905
C          3.04958       -0.90286       -0.06759
C          1.81189       -1.43320       -0.04314
C          0.66470       -0.49051       -0.01146
H          1.71708       -2.51596       -0.06029
H          3.87349       -1.62659       -0.15617
H          3.90496        2.22620        0.09267
H         -0.23151        2.90037        0.02641
H         -4.66195        0.87159       -0.01511
