32
Coordinates from ORCA-job ./opt_b97-3c_parallel
N          5.54588        0.39613       -0.28385
C          4.49507        0.43755        0.16328
C          3.08089        0.21694        0.16818
C          2.23154        1.33914       -0.12375
N          2.40003        2.64719       -0.48485
H          1.60443        3.15686       -0.85325
H          3.32831        2.95589       -0.75350
C          0.92794        0.74677       -0.01087
C          1.02774       -0.67885        0.15843
C          2.41639       -1.05893        0.15587
N          3.02873       -2.28087        0.11376
H          2.46954       -3.08892       -0.13648
H          4.02377       -2.31388       -0.07956
C         -0.21809       -1.42024        0.20159
N         -0.02788       -2.75650        0.42998
H          0.87960       -3.04771        0.77685
H         -0.83008       -3.30849        0.71069
C         -1.48707       -0.84583        0.03021
C         -2.61908       -1.68529       -0.04942
C         -3.92588       -1.27939       -0.33010
C         -4.31183        0.07955       -0.59916
N         -3.86176        1.06215       -0.36803
C         -2.82220        1.25576       -0.05116
N         -3.09164        2.29569        0.79678
H         -4.05481        2.56481        0.96380
H         -2.40225        2.55950        1.49132
C         -1.56160        0.55373       -0.04566
C         -0.39571        1.31380       -0.04560
H         -0.44498        2.39949       -0.07981
H         -5.28767        0.46177       -0.87520
H         -4.72318       -2.01513       -0.40051
H         -2.48726       -2.75752        0.06344
