25
Coordinates from ORCA-job ./opt_b97-3c_parallel
N         -3.05109       -3.10140        0.00013
C         -2.40568       -2.15799       -0.00075
C         -1.55835       -0.99739       -0.00116
C         -2.22905        0.28161       -0.00164
C         -1.48368        1.48355       -0.00215
N         -2.41962        2.43650       -0.00171
C         -3.63721        1.87559       -0.00109
N         -3.58702        0.49753       -0.00103
H         -4.51800        2.53550       -0.00067
N         -0.20290        1.36265       -0.00274
C          0.53290        0.28534       -0.00179
C          1.88232        0.63381       -0.00198
C          2.39506        1.99134       -0.00293
N          2.86994        3.03182       -0.00121
C          3.01036       -0.28338       -0.00081
C          2.98016       -1.67162        0.00027
C          1.83413       -2.52906        0.00044
C          0.49378       -2.23024       -0.00032
C         -0.15032       -0.93399       -0.00123
H         -0.13210       -3.11455        0.00012
H          2.09545       -3.58315        0.00132
H          3.89285       -2.27936        0.00114
N          4.11066       -0.10369       -0.00081
H          4.27603        0.90154       -0.00061
H          5.02798       -0.54531       -0.00027
