25
Coordinates from ORCA-job ./opt_b97-3c_parallel
N          0.00981       -3.99478        0.47780
C          0.20766       -2.87586        0.35232
C          0.43820       -1.45568        0.20251
C          1.75182       -1.00263        0.07505
N          2.90163       -1.71654        0.05912
C          3.75512       -0.99033       -0.07285
C          3.40046        0.40637       -0.17232
C          1.99756        0.32392       -0.06362
C          1.00727        1.29475       -0.07701
C          1.37453        2.68555       -0.21293
N          1.68229        3.78181       -0.31927
C         -0.32954        0.87309        0.04295
N         -1.31767        1.80179        0.04771
C         -2.42523        1.81740        0.12765
N         -3.15247        0.97583        0.15872
C         -3.12362       -0.13353        0.13045
N         -4.29917       -0.57734       -0.40250
H         -4.35440       -1.51760       -0.77785
H         -4.98681        0.09761       -0.71821
C         -1.95213       -0.97231        0.24604
C         -0.61847       -0.51620        0.16747
H         -2.21864       -2.02012        0.36074
H         -2.79348        2.69449        0.63853
H          4.05736        1.25900       -0.31196
H          4.73182       -1.45803       -0.11336
