29
Coordinates from ORCA-job ./opt_b97-3c_parallel
N         -5.74790       -0.09809        0.00214
C         -4.60642       -0.06334        0.00799
C         -3.17501        0.01598        0.00129
C         -2.41110        1.17775       -0.03115
N         -2.66469        2.25298       -0.05986
H         -3.67922        2.34537       -0.10012
H         -2.28085        3.16867       -0.28478
C         -1.05764        0.72678       -0.02198
C         -1.04934       -0.67718        0.01094
C         -2.32985       -1.16620        0.02929
N         -2.56144       -2.24713        0.05921
H         -3.58011       -2.29606        0.08076
H         -2.22496       -3.18311        0.27618
C          0.21036       -1.36414        0.01804
C          1.39653       -0.66986       -0.00946
C          2.42039       -1.57117       -0.03233
N          3.79116       -1.44482       -0.02088
C          4.14093       -0.11476        0.01049
N          3.83848        1.23034        0.03275
C          2.49869        1.61294        0.01682
C          1.36804        0.70926       -0.01297
C          0.15656        1.50177       -0.04067
H          0.01262        2.57582        0.06241
H          2.53367        2.71358        0.02531
N          5.24130       -0.04019        0.02239
H          5.86150       -0.84861       -0.00292
H          5.84695        0.77969        0.03321
H          2.57293       -2.66120       -0.05707
H          0.19063       -2.45152        0.04156
