34
Coordinates from ORCA-job ./opt_b97-3c_parallel
N          0.16041       -4.45985        0.55734
C          0.19069       -3.32960        0.38797
C          0.23670       -1.89211        0.19093
C          1.50910       -1.32364        0.15521
C          1.66252        0.01440       -0.10176
C          3.02153        0.47357       -0.24788
C          3.88885        1.59361       -0.04068
N          4.59453        2.26818       -0.63539
C          3.48141       -0.87260        0.00553
C          2.72964       -2.07722        0.25031
H          2.94521       -2.83584        0.99777
N          4.78732       -1.28179       -0.01000
H          5.02448       -2.19916        0.35138
H          5.51452       -0.57311       -0.02608
C          0.54100        0.83821       -0.21152
C          0.77957        2.15576       -0.77547
N          0.96888        3.18340       -1.23876
C         -0.77408        0.33233        0.01332
C         -0.92744       -1.08365        0.04676
C         -2.14682       -1.77752       -0.09599
C         -3.42221       -1.31742       -0.39487
C         -3.88065       -0.01458       -0.37672
C         -3.20416        1.12113        0.03836
N         -4.03478        2.20776        0.18347
H         -5.03849        2.06239        0.18996
H         -3.67189        3.04626        0.62656
C         -1.82243        1.26392        0.27386
C         -1.47507        2.47720        1.00589
N         -1.21460        3.42035        1.59766
H         -4.93955        0.11390       -0.60300
N         -4.35938       -2.27066       -0.68791
H         -5.25178       -1.97627       -1.06961
H         -4.05046       -3.21786       -0.87858
H         -2.11816       -2.86207       -0.08774
