33
Coordinates from ORCA-job ./opt_b97-3c_parallel
N          5.70273        0.00001       -0.23646
C          4.61027        0.00001        0.09918
C          3.17988        0.00057        0.18510
C          2.41182       -1.21200        0.07981
N          2.79572       -2.51765       -0.04439
H          3.77290       -2.71423       -0.23528
H          2.10700       -3.20229       -0.33493
C          1.06508       -0.71347        0.11934
C          1.06514        0.71497        0.11951
C          2.41174        1.21302        0.08057
N          2.79741        2.51791       -0.04354
H          2.10921        3.20407       -0.33208
H          3.77457        2.71355       -0.23401
C         -0.22943        1.34173        0.12936
C         -1.48573        0.70713        0.06466
C         -2.60878        1.56596        0.01626
N         -2.43974        2.91418        0.20945
H         -1.59397        3.21768        0.67898
H         -3.27100        3.47447        0.36119
C         -3.94005        1.24083       -0.22768
C         -4.52444       -0.00001       -0.38381
C         -3.93970       -1.24010       -0.22716
C         -2.60894       -1.56489        0.01904
N         -2.43886       -2.91337        0.20967
H         -1.59335       -3.21691        0.67976
H         -3.27019       -3.47414        0.36044
C         -1.48501       -0.70747        0.06457
C         -0.22902       -1.34139        0.12814
H         -0.07151       -2.41586        0.10207
H         -4.63697       -2.07331       -0.30710
H         -5.59174       -0.00009       -0.59344
H         -4.63745        2.07378       -0.30774
H         -0.07191        2.41707        0.10498
