27
Coordinates from ORCA-job ./opt_b97-3c_parallel
N         -1.21028       -3.65637       -0.02444
C         -0.98921       -2.53469       -0.04856
C         -0.71946       -1.11348       -0.06621
C         -1.79767       -0.22658       -0.11280
C         -1.55507        1.12833       -0.13159
N         -0.31721        1.65436       -0.10341
C          0.75226        0.82278       -0.05817
C          1.99596        1.46646       -0.03324
C          3.27798        0.81280        0.00489
N          3.69616       -0.20697        0.02163
C          3.06972       -1.11510        0.02565
C          1.68042       -1.48204        0.00320
C          0.59262       -0.59019       -0.03961
H          1.57832       -2.56404        0.01909
H          3.93842       -1.75971       -0.04765
N          4.45850        1.50104       -0.00323
H          4.45914        2.51053        0.08850
H          5.33550        1.00624        0.11539
H          2.05150        2.55309       -0.04702
C         -2.69521        1.99132       -0.18359
C         -3.49469        0.79275       -0.08516
N         -4.82014        1.07064        0.10021
H         -5.14238        2.02602       -0.01462
H         -5.49823        0.32187        0.01136
C         -3.17935       -0.61557       -0.14617
H         -3.64255       -1.38637        0.46186
H         -2.83746        2.89248        0.40368
