22
Coordinates from ORCA-job ./opt_b97-3c_parallel
N         -1.07977       -3.53426        0.00084
C         -0.87742       -2.40907        0.00063
C         -0.57729       -1.00420        0.00042
C         -1.69239       -0.09706        0.00064
N         -2.97734       -0.40705        0.00113
C         -3.62558        0.77058        0.00113
N         -2.81756        1.80291        0.00056
C         -1.62037        1.30303        0.00032
C         -0.37195        1.87190       -0.00033
C          0.80384        1.03572       -0.00051
N          1.92321        1.76397       -0.00122
C          3.20209        1.40533       -0.00142
C          3.83968        0.19873       -0.00082
C          3.17616       -1.06865        0.00002
C          1.82210       -1.33549        0.00025
C          0.69036       -0.41677       -0.00002
H          1.60514       -2.39686        0.00094
H          3.85387       -1.91665        0.00059
H          4.92463        0.16686       -0.00097
H          3.87660        2.27468       -0.00209
H         -0.26703        2.95329       -0.00073
H         -4.72203        0.86538        0.00168
