24
Coordinates from ORCA-job ./opt_b97-3c_parallel
N         -1.37881       -3.53639       -0.07453
C         -1.28713       -2.39808       -0.04258
C         -1.12850       -0.96216       -0.00542
C         -2.23436       -0.10984        0.00937
N         -3.51113       -0.47259       -0.00080
C         -4.08534        0.74271        0.02491
N         -3.26944        1.87270        0.05055
C         -2.08440        1.25789        0.03878
N         -0.86368        1.83913        0.05037
C          0.22687        1.03608        0.03454
C          1.52302        1.77767        0.03935
C          2.80026        1.29608        0.01296
N          3.47906        0.08957        0.00428
C          2.63011       -1.00282        0.01358
N          3.03096       -2.02885        0.01740
H          2.74055       -3.00458        0.07549
H          4.04784       -2.02805        0.09001
N          1.25641       -1.11725        0.01037
C          0.14121       -0.36654        0.01166
N          3.78967        1.78129       -0.02978
H          3.53927        2.76627        0.05106
H          4.77231        1.76167       -0.30121
H          1.35832        2.85442        0.06709
H         -5.14791        1.03147        0.02929
