35
Coordinates from ORCA-job ./opt_b97-3c_parallel
N          5.92046        0.10119        0.25408
C          4.79521        0.25972        0.13892
C          3.36914        0.13337        0.15772
C          2.63610        1.35392       -0.03778
N          2.96489        2.66943       -0.21902
H          3.92174        2.96020       -0.04939
H          2.23373        3.37112       -0.18319
C          1.27834        0.88466       -0.04643
C          1.22168       -0.54467        0.01549
C          2.56715       -1.05783        0.08680
N          3.15424       -2.29187        0.16562
H          4.16639       -2.35169        0.13096
H          2.61574       -3.10631       -0.10764
C         -0.10808       -1.12221       -0.01997
N          0.06974       -2.45126        0.26712
H          0.98093       -2.74311        0.60299
H         -0.73654       -2.96734        0.60310
C         -1.34418       -0.42805       -0.10300
C         -2.56096       -1.15373       -0.23729
N         -2.54014       -2.48580       -0.56545
H         -3.40040       -2.90984       -0.89365
H         -1.66933       -2.86655       -0.92045
C         -3.87566       -0.69400       -0.13222
C         -4.37090        0.58267        0.09097
N         -5.72637        0.70089        0.22347
H         -6.27064       -0.14199        0.37327
H         -6.10150        1.57197        0.58286
C         -3.64314        1.75757        0.14133
C         -2.27276        1.92404        0.03757
C         -1.24572        0.97853       -0.04364
C          0.01943        1.57318       -0.03225
H          0.15513        2.65161        0.01290
H         -1.97053        2.96869        0.07855
H         -4.21270        2.67640        0.26577
H         -4.64704       -1.45872       -0.22647
