29
Coordinates from ORCA-job ./opt_b97-3c_parallel
N         -1.33768       -3.62018        0.05887
C         -1.04323       -2.51535        0.07522
C         -0.68557       -1.11016        0.08822
C         -1.74768       -0.20009        0.13006
C         -1.50445        1.15125        0.14786
C         -2.63798        2.02546        0.19622
C         -3.44509        0.83218        0.14081
N         -4.78857        1.05957        0.04344
H         -5.13919        1.99859        0.19734
H         -5.42695        0.28209        0.17233
C         -3.13499       -0.57550        0.15836
H         -3.60777       -1.32463       -0.46993
H         -2.76392        2.91239       -0.41693
C         -0.20327        1.62158        0.11917
C          0.89345        0.74721        0.07473
C          2.12034        1.42585        0.05086
C          3.42687        0.94945        0.01482
N          4.41882        1.89086        0.00290
H          4.17296        2.86010       -0.16479
H          5.36956        1.59721       -0.19228
C          3.84352       -0.37117       -0.00764
C          3.05856       -1.50949       -0.00584
C          1.67585       -1.63183        0.02193
C          0.66307       -0.65257        0.06067
H          1.38503       -2.67680        0.01289
H          3.60747       -2.44824       -0.02949
H          4.91774       -0.54651       -0.03104
H          2.05698        2.51316        0.06521
H         -0.05379        2.69965        0.13337
