27
Coordinates from ORCA-job ./opt_b97-3c_parallel
N         -0.93720       -3.39741       -0.89907
C         -1.16694       -2.77676        0.03502
C         -0.90132       -1.36010        0.03388
C         -2.16818       -0.62842        0.01146
C         -2.10151        0.80636       -0.00579
N         -3.15710        0.49250        0.02525
C         -4.09345       -0.04409        0.24178
C         -3.41149       -1.20105        0.02185
H         -3.73095       -1.89159       -0.75909
H         -5.18686        0.08417        0.26625
C         -0.83149        1.46708       -0.05188
C         -1.26358        2.83480       -0.08455
N         -0.72414        3.67866        0.46780
C          0.34593        0.75194       -0.05177
N          1.45441        1.57542       -0.15409
C          2.69043        1.01473       -0.12048
N          3.52631       -0.05565       -0.00248
C          2.92172       -1.28712        0.16228
N          3.75683       -2.00744        0.27256
H          3.47096       -2.98788        0.32504
H          4.76153       -2.02398        0.46112
C          1.50117       -1.59233        0.15292
C          0.33333       -0.70386        0.03924
H          1.31262       -2.65363        0.27121
N          3.19893        1.98656       -0.26727
H          4.18540        2.09330       -0.50625
H          2.81681        2.93414       -0.31174
