28
Coordinates from ORCA-job ./opt_b97-3c_parallel
N         -0.45730       -4.28948        0.04885
C         -0.18358       -3.19034        0.19423
C          0.11580       -1.78848        0.37163
C          1.42685       -1.41544        0.66236
N          2.52413       -2.04099        0.30861
C          3.55206       -1.37740       -0.14810
C          3.04508       -0.11549       -0.05195
C          4.07995        0.52278       -0.80364
N          4.17422        1.64455       -1.00210
C          1.80820       -0.06240        0.63314
C          0.86039        0.98129        0.37813
C          1.23383        2.37632        0.39074
N          1.48654        3.48982        0.38964
C         -0.48592        0.58702        0.24503
N         -1.43287        1.53665        0.13229
C         -2.76566        1.84889       -0.03318
N         -3.81536        0.95948       -0.22270
C         -3.44549       -0.37932       -0.19255
N         -4.45115       -0.79391       -0.41239
H         -5.41128       -0.50951       -0.62044
H         -4.46930       -1.81345       -0.49153
C         -2.32011       -1.13561        0.01004
C         -0.86820       -0.77931        0.22536
H         -2.46014       -2.21192        0.05975
N         -2.81721        2.95128        0.00355
H         -3.67860        3.48903        0.11185
H         -2.06267        3.63573        0.08200
H          4.30384       -2.16057       -0.33529
