30
Coordinates from ORCA-job ./opt_b97-3c_parallel
N         -0.22667       -4.27712        0.18701
C         -0.08353       -3.14490        0.17702
C          0.07175       -1.71123        0.17813
C          1.35881       -1.18338        0.27383
N          2.55134       -1.73381        0.22768
C          3.52162       -0.86234        0.08406
N          4.44339       -1.47774        0.03345
H          4.92497       -2.36731        0.18108
H          5.18439       -0.81286       -0.20568
C          2.95881        0.40708        0.03717
C          3.82492        1.52997       -0.16866
N          4.80499        1.63561       -0.74592
C          1.56429        0.19406        0.22100
C          0.49622        1.14524        0.11177
C          0.70963        2.57105        0.05671
N          0.85383        3.70132        0.00195
C         -0.80693        0.59461        0.09140
N         -1.86949        1.42432        0.08833
C         -3.24227        1.58967        0.05142
N         -4.19218        0.58437       -0.08980
C         -3.67480       -0.70633       -0.12275
N         -4.63931       -1.22115       -0.32206
H         -5.61640       -0.96808       -0.49427
H         -4.62932       -2.23687       -0.44703
C         -2.45369       -1.32259       -0.00015
C         -1.03005       -0.81241        0.09626
H         -2.46215       -2.40820        0.04732
N         -3.53766        2.65175        0.12519
H         -2.98269        3.49794        0.26753
H         -4.50763        2.95884        0.22230
