26
Coordinates from ORCA-job ./opt_b97-3c_parallel
N         -1.01710       -4.11510       -0.19973
C         -0.79821       -2.99565       -0.14078
C         -0.53669       -1.57368       -0.08117
C          0.78945       -1.13850       -0.07604
N          1.91062       -1.89270       -0.10621
C          2.74037       -1.13622       -0.07885
N          4.00507       -1.65146       -0.09009
H          4.14431       -2.65459       -0.03840
H          4.80525       -1.04354        0.04879
C          2.48181        0.28802       -0.02969
C          3.47524        1.31713        0.01962
N          4.27554        1.98534        0.48732
C          1.06830        0.19496       -0.03296
C          0.08285        1.17550       -0.01326
C          0.45287        2.57267        0.00627
N          0.75940        3.67378        0.01513
C         -1.26311        0.76771       -0.01462
N         -2.24259        1.70482       -0.00670
C         -3.35177        1.74796       -0.00930
N         -4.07321        0.90535        0.06468
C         -4.08062       -0.20379        0.11685
C         -2.91933       -1.05733        0.01244
C         -1.57737       -0.61979       -0.03001
H         -3.21426       -2.10369        0.01559
H         -4.94820       -0.32363        0.75586
H         -3.71247        2.57805       -0.59894
