25
Coordinates from ORCA-job ./opt_b97-3c_parallel
N         -0.79418       -3.61524       -0.01994
C         -0.75818       -2.47289       -0.00404
C         -0.72736       -1.02773        0.00541
C         -1.94469       -0.35684       -0.00046
C         -2.06462        0.99182        0.00278
N         -3.35418        1.39327        0.00004
C         -3.98092        0.45363       -0.00392
C         -3.27934       -0.80988       -0.00723
H         -3.69519       -1.81234       -0.01285
H         -5.04680        0.64857       -0.00534
C         -0.91754        1.76987        0.00505
C          0.34259        1.15567        0.00846
N          1.40559        1.96871        0.00214
C          2.49461        2.05214       -0.00234
C          3.38574        0.93424        0.03464
C          3.01423       -0.41091        0.05269
N          4.03617       -1.31840        0.09022
H          4.98451       -0.99994       -0.07546
H          3.82729       -2.30120       -0.04801
C          1.70893       -0.93018        0.03840
C          0.46296       -0.25749        0.01578
H          1.68517       -2.01590        0.05368
H          4.43333        1.22732        0.04839
H          2.73312        3.10385       -0.10425
H         -1.00176        2.85474        0.00319
