27
Coordinates from ORCA-job ./opt_b97-3c_parallel
N         -5.79828       -0.74642        0.00026
C         -4.68425       -0.49304        0.00088
C         -3.28998       -0.13504        0.00095
C         -2.82970        1.23210        0.00176
C         -1.54361        1.68877        0.00195
C         -0.34630        1.03684        0.00105
N          0.68125        1.98386        0.00144
C          1.98851        1.55107        0.00089
C          2.30528        0.16160        0.00032
C          3.74329        0.25656       -0.00000
C          4.67542       -0.82216       -0.00050
N          5.39486       -1.70858       -0.00116
C          4.15823        1.62537        0.00030
N          3.04540        2.42666        0.00097
H          5.20992        1.95215        0.00012
C          1.29069       -0.84628       -0.00033
C         -0.09115       -0.39289        0.00028
C         -1.06310       -1.39030       -0.00021
C         -0.84558       -2.81210       -0.00091
N         -0.34904       -3.84103       -0.00181
C         -2.51765       -1.28762        0.00019
H         -3.07501       -2.22921       -0.00025
H          1.54371       -1.90071       -0.00093
H         -1.44859        2.78287        0.00287
N         -3.56414        2.06418        0.00235
H         -4.54187        1.77399        0.00233
H         -3.57195        3.08297        0.00273
