33
Coordinates from ORCA-job ./opt_b97-3c_parallel
N          6.29061        0.61708        0.30203
C          5.16512        0.43700        0.21849
C          3.73496        0.21580        0.09365
C          3.04272        1.35019       -0.29174
C          1.67632        1.59374       -0.37995
C          1.45214        2.89581       -0.97960
N          1.30055        3.91900       -1.46653
C          0.59253        0.72204       -0.09245
C          0.69888       -0.70144       -0.07914
N         -0.44892       -1.43850       -0.15503
C         -1.66965       -0.88902       -0.13983
C         -1.84658        0.45062        0.06293
C         -3.20854        0.88777        0.22783
C         -4.08460        1.99555        0.46200
N         -4.93361        2.71591        0.71515
C         -3.56618       -0.49772        0.01137
N         -4.90356       -0.79907       -0.03776
H         -5.20758       -1.76385       -0.12432
H         -5.59059       -0.08222        0.17575
C         -2.83338       -1.72720       -0.19908
C         -2.95479       -3.11802       -0.51473
N         -3.53438       -4.08757       -0.69032
C         -0.71461        1.27099        0.11788
C         -0.94810        2.62333        0.58872
N         -1.14027        3.67984        0.98076
C          1.88127       -1.49033        0.04460
C          1.69446       -2.94354        0.05430
N          1.56376       -4.07954        0.06742
C          3.21880       -1.07640        0.25099
N          4.14802       -2.04444        0.58914
H          5.13487       -1.80909        0.61970
H          3.87703       -3.02256        0.60664
H          3.68244        2.20721       -0.51758
