29
Coordinates from ORCA-job ./opt_b97-3c_parallel
N          4.43322        2.46921       -0.20728
C          3.69560        1.59785       -0.15142
C          2.78610        0.48183       -0.08139
C          3.22257       -0.83162       -0.03375
C          2.11341       -1.65663        0.03498
C          2.20869       -3.09227        0.11990
N          2.30475       -4.22851        0.19352
C          0.97454       -0.84506        0.02930
C          1.38569        0.47515       -0.03628
C          0.45737        1.52656       -0.03741
C          0.93149        2.89230       -0.11568
N          1.28547        3.97718       -0.18142
C         -0.92826        1.22628        0.04151
C         -1.85728        2.29849        0.11439
C         -3.25375        2.28116        0.24231
C         -4.10500        1.17809        0.25991
C         -3.68874       -0.17642        0.07157
N         -2.63489       -0.45723        0.07996
C         -1.33221       -0.13166        0.06943
C         -0.38266       -1.17284        0.07140
C         -0.81835       -2.55436        0.10682
N         -1.17899       -3.63884        0.13179
N         -4.50300       -1.14613       -0.43251
H         -5.50443       -0.99543       -0.47914
H         -4.15285       -2.09134       -0.54412
H         -5.17491        1.32519        0.38867
H         -3.73549        3.25089        0.34352
H         -1.47534        3.31393        0.11096
H          4.26015       -1.15897       -0.04206
