29
Coordinates from ORCA-job ./opt_b97-3c_parallel
N         -5.56370       -0.69604        0.02991
C         -4.43039       -0.54719        0.02176
C         -2.99306       -0.33666        0.01121
C         -2.27444       -1.52250        0.00801
C         -0.90426       -1.75559       -0.00208
C         -0.60416       -3.17833       -0.00293
N         -0.38927       -4.30194       -0.00338
C          0.15941       -0.82726       -0.01053
N          1.40456       -1.40608       -0.01949
C          2.49184       -0.62444       -0.02654
C          2.39277        0.72446       -0.02454
N          1.20706        1.34034       -0.01684
C          0.04872        0.60235       -0.00990
C         -1.14011        1.38648       -0.00309
C         -0.94932        2.83911       -0.00554
N         -0.81899        3.97551       -0.00722
C         -2.49471        0.97523        0.00557
N         -3.45841        1.96886        0.00944
H         -3.18396        2.94627        0.00613
H         -4.44442        1.72928        0.01573
C          3.65243        1.39173       -0.03291
C          4.49435        0.20910       -0.03851
N          5.85470        0.32759       -0.04730
H          6.28818        1.24469       -0.04822
H          6.43857       -0.50163       -0.05360
C          3.84104       -1.08830       -0.03468
H          4.24958       -2.09332       -0.04493
H          3.89736        2.44903       -0.02677
H         -2.89172       -2.42354        0.01394
