30
Coordinates from ORCA-job ./opt_b97-3c_parallel
N         -6.04782       -0.54269        0.00708
C         -4.90803       -0.47181        0.01200
C         -3.46242       -0.36585        0.01252
C         -2.98969        0.94081        0.00611
C         -1.68863        1.44341       -0.00640
C         -1.66549        2.89694       -0.01353
N         -1.67044        4.04035       -0.01402
C         -0.45714        0.74819       -0.01625
N          0.66551        1.53144       -0.06646
C          1.89427        0.98391       -0.07257
C          2.09773       -0.36560       -0.01617
C          3.46039       -0.80487       -0.02746
C          4.06384       -2.10094       -0.03844
N          4.72034       -3.02930       -0.00491
C          3.86106        0.58723       -0.04059
N          5.20125        0.85893        0.05381
H          5.87359        0.09931        0.00891
H          5.53454        1.81071       -0.05451
C          3.06959        1.78845       -0.20123
H          3.23729        2.75761        0.25664
C          0.99016       -1.20205        0.01931
C         -0.31061       -0.66158        0.01063
C         -1.31127       -1.64146        0.02216
C         -2.70088       -1.53854        0.01723
N         -3.35187       -2.74849        0.02695
H         -4.36581       -2.77871       -0.00666
H         -2.82702       -3.61517       -0.00696
H         -0.94940       -2.66935        0.03054
H          1.14914       -2.27808        0.04156
H         -3.77335        1.70067        0.00757
