31
Coordinates from ORCA-job ./opt_b97-3c_parallel
N         -6.11807       -0.98242        0.46177
C         -4.99618       -0.79982        0.34506
C         -3.57874       -0.57680        0.18333
C         -2.76616       -1.69067        0.25947
C         -1.38968       -1.80024        0.07276
C         -0.99909       -3.19765        0.11102
N         -0.70803       -4.30259        0.14363
C         -0.41128       -0.77193       -0.03814
C          0.93073       -1.21346       -0.12909
C          2.00770       -0.34746       -0.13076
C          1.80000        0.99054        0.05202
C          2.99561        1.78265        0.16804
C          3.75241        0.56144        0.05085
N          5.07989        0.81908        0.25672
H          5.40199        1.78071        0.28628
H          5.75809        0.08991        0.05935
C          3.36596       -0.80674       -0.20053
C          4.02358       -2.00965       -0.60329
N          4.69755       -2.93244       -0.62267
H          3.16408        2.57324        0.89366
C          0.49824        1.49180        0.13145
C          0.41166        2.86161        0.60669
N          0.35998        3.93266        1.00291
C         -0.64146        0.64125       -0.05217
C         -1.91114        1.24182       -0.29983
C         -2.01053        2.55268       -0.91396
N         -2.11087        3.57490       -1.41580
C         -3.18899        0.70118       -0.16580
H         -4.02027        1.38684       -0.34433
H          1.19890       -2.26322       -0.19613
H         -3.30251       -2.62378        0.44377
