28
Coordinates from ORCA-job ./opt_b97-3c_parallel
N         -5.78295       -0.56250       -0.25543
C         -4.65113       -0.41129       -0.20352
C         -3.22098       -0.23363       -0.12571
C         -2.71593        1.10724       -0.10955
N         -1.67079        1.41518       -0.12763
C         -0.40309        0.99062       -0.10291
C          0.57905        1.99103       -0.13130
C          1.91186        1.62700       -0.08187
C          2.27784        0.30912       -0.00389
C          3.66308        0.24656        0.04512
C          4.46842       -0.94258        0.14615
N          5.10106       -1.88987        0.23840
C          4.14246        1.55187       -0.00852
C          3.05271        2.41431       -0.08842
H          3.09025        3.49941       -0.14225
H          5.18861        1.84819        0.01229
C          1.32948       -0.70469        0.01618
C         -0.04996       -0.38507       -0.03972
C         -1.00095       -1.44617       -0.03851
C         -0.54092       -2.81845       -0.00868
N         -0.19131       -3.90663        0.00580
C         -2.40635       -1.36644       -0.08754
H         -2.94309       -2.31544       -0.09971
H          1.69318       -1.72656        0.07537
H          0.30126        3.04199       -0.18330
N         -3.38424        2.19219        0.38332
H         -4.39319        2.15324        0.48002
H         -2.94836        3.10637        0.34098
