27
Coordinates from ORCA-job ./opt_b97-3c_parallel
N         -5.32465       -0.18772        0.00131
C         -4.18751       -0.07057        0.00244
C         -2.74669        0.08934        0.00101
C         -2.04524       -1.11120        0.00042
C         -0.67419       -1.37047        0.00005
C         -0.39368       -2.79602       -0.00009
N         -0.19327       -3.92170       -0.00013
C          0.40879       -0.46349       -0.00008
N          1.65188       -1.04180        0.00008
C          2.75235       -0.27517       -0.00018
C          2.69319        1.08419       -0.00089
C          3.97264        1.57632       -0.00122
C          4.82351        0.47800       -0.00098
C          4.10187       -0.78487        0.00069
H          4.46777       -1.80650       -0.00350
H          5.90121        0.62076       -0.00169
H          4.26670        2.62301       -0.00183
C          1.47332        1.73169       -0.00076
C          0.29644        0.95661       -0.00012
C         -0.86466        1.73628        0.00028
C         -2.21039        1.38167        0.00093
N         -3.07287        2.45077        0.00164
H         -4.07603        2.29461        0.00129
H         -2.71569        3.39957        0.00064
H         -0.69663        2.81286        0.00004
H          1.44849        2.81930       -0.00084
H         -2.67893       -1.99999        0.00058
