27
Coordinates from ORCA-job ./opt_b97-3c_parallel
N         -5.29207       -0.67709       -0.44704
C         -4.20977       -0.39248       -0.21946
C         -2.86888        0.00693        0.06443
C         -2.43912        1.36390       -0.09977
N         -1.16730        1.76063        0.12446
C         -0.01501        1.06801        0.29865
N          0.93303        1.95815        0.34797
C          2.12419        1.48819        0.16535
C          2.53241        0.20280       -0.08123
C          3.89635        0.18170       -0.21217
C          4.37580        1.40732       -0.04548
C          3.33248        2.24321        0.18778
H          3.37897        3.31306        0.36793
H          5.42427        1.69445       -0.09264
H          4.50412       -0.69713       -0.42020
C          1.49960       -0.81842       -0.13478
C          2.11921       -2.08151       -0.41783
N          2.04089       -2.35785       -1.52539
C          0.19663       -0.36301        0.08975
C         -0.91771       -1.27743        0.17301
C         -0.88046       -2.70392        0.06847
N         -0.85027       -3.84464        0.02459
C         -2.13410       -0.95159        0.67670
H         -2.44804       -1.33464        1.64790
N         -2.64430        2.40899       -0.38516
H         -2.61398        3.41673       -0.53655
H         -3.59901        2.11898       -0.59703
