23
Coordinates from ORCA-job ./opt_b97-3c_parallel
N         -0.14236       -3.34705        0.37977
C         -0.74833       -2.46111       -0.01518
C         -0.62374       -1.03143       -0.02771
C         -1.87579       -0.44688       -0.02711
N         -3.15712       -0.80033       -0.02512
C         -3.94258        0.28640       -0.03374
N         -3.23618        1.38187       -0.03842
C         -2.00991        0.96892       -0.03539
C         -0.91406        1.80114       -0.03939
C          0.40948        1.24234       -0.04249
N          1.38556        2.17652       -0.05616
C          2.67755        1.70486       -0.03720
C          3.75266        0.87566       -0.00940
C          2.91454       -0.19946       -0.05727
N          1.72900       -0.90997       -0.08093
C          0.56463       -0.21074       -0.04337
N          3.40106       -1.19145       -0.16576
H          3.20394       -2.19311       -0.20119
H          4.39081       -1.10537       -0.39634
H          4.50361        0.98097        0.77287
H          2.98926        2.76166       -0.05090
H         -1.04451        2.88037       -0.04369
H         -5.04365        0.29168       -0.03983
