32
Coordinates from ORCA-job ./opt_b97-3c_parallel
N         -4.00989       -3.10023        0.62018
C         -3.22908       -2.29612        0.39532
C         -2.24180       -1.26496        0.12955
C         -2.76329        0.01329        0.24729
C         -2.18625        1.22054       -0.10667
C         -3.14256        2.31119       -0.14073
N         -3.90702        3.16207       -0.16732
C         -0.83201        1.48033       -0.37453
N         -0.57381        2.73754       -0.87820
H          0.37873        3.00222       -1.10894
H         -1.32855        3.39865       -1.02786
C          0.27106        0.60766       -0.18328
C          1.54993        1.20437       -0.01463
N          1.84717        2.47701        0.40156
H          1.08295        3.05513        0.73527
H          2.77121        2.65500        0.77839
C          2.81325        0.54132        0.11036
C          2.68984       -0.88013       -0.06124
C          3.88864       -1.56614       -0.01383
C          4.86920       -0.63571        0.19676
C          4.25527        0.60029        0.27594
H          4.84767        1.49410        0.45425
H          5.93358       -0.83297        0.29772
H          4.02857       -2.64067       -0.10565
C          1.46268       -1.51029       -0.19490
C          0.22637       -0.81609       -0.20988
C         -0.93324       -1.63523       -0.23046
N         -0.77723       -2.97323       -0.52711
H         -1.61341       -3.53103       -0.66782
H          0.05620       -3.25587       -1.03040
H          1.51770       -2.59387       -0.23488
H         -3.81693        0.06369        0.53058
