29
Coordinates from ORCA-job ./opt_b97-3c_parallel
N         -6.14694       -0.67299       -0.00054
C         -5.01748       -0.50193       -0.00247
C         -3.58781       -0.30127       -0.00176
C         -2.80773       -1.44085       -0.00140
C         -1.42127       -1.57812       -0.00032
C         -1.06179       -2.98436        0.00000
N         -0.79345       -4.09545        0.00047
C         -0.41361       -0.57485        0.00016
C          0.92422       -1.05126        0.00094
C          1.98864       -0.17588        0.00124
C          1.83247        1.15824        0.00135
N          3.01155        1.81627        0.00162
C          3.78224        0.99122        0.00152
N          5.10706        1.32305        0.00112
H          5.39925        2.29359        0.00231
H          5.81661        0.59740        0.00220
C          3.38103       -0.40093        0.00152
C          4.10505       -1.63312        0.00136
N          4.84634       -2.50295        0.00153
C          0.54938        1.67941        0.00123
C         -0.60994        0.84840        0.00073
C         -1.85720        1.53129        0.00044
C         -1.90804        2.98095        0.00153
N         -1.96816        4.12248        0.00244
C         -3.15225        1.01221       -0.00053
H         -3.96019        1.74712       -0.00063
H          0.50267        2.76396        0.00150
H          1.19027       -2.10351        0.00097
H         -3.37932       -2.37165       -0.00227
