27
Coordinates from ORCA-job ./opt_b97-3c_parallel
N         -5.65325       -1.02520        0.49496
C         -4.54843       -0.76935        0.35754
C         -3.15679       -0.43040        0.17705
C         -2.22002       -1.50976        0.06993
N         -1.13263       -1.42374        0.08296
C         -0.09877       -0.57551        0.04417
C          1.17711       -1.15130        0.07228
C          2.28016       -0.32090        0.00447
C          2.17874        1.02476       -0.10276
N          3.38203        1.62977       -0.16924
C          4.11058        0.77014       -0.10651
C          3.66087       -0.60047        0.01274
C          4.58977       -1.67978        0.11164
N          4.81793       -2.74222        0.46599
H          5.11959        1.16376       -0.14382
C          0.92201        1.61745       -0.12392
C         -0.25495        0.83338       -0.03396
C         -1.51847        1.48994       -0.00348
C         -1.57540        2.93566       -0.04533
N         -1.63320        4.07709       -0.06698
C         -2.79949        0.91765        0.11676
H         -3.63533        1.61515        0.17780
H          0.89642        2.70093       -0.20460
H          1.30542       -2.22973        0.14206
N         -2.51114       -2.74697       -0.43277
H         -1.79709       -3.46684       -0.43142
H         -3.47939       -3.04298       -0.49226
