29
Coordinates from ORCA-job ./opt_b97-3c_parallel
N          3.28348        3.99145        0.46288
C          2.98787        2.89754        0.31588
C          2.60835        1.51899        0.14782
C          3.48190        0.45188       -0.00011
C          2.72883       -0.71031       -0.12699
C          3.30868       -2.01391       -0.32546
N          3.78420       -3.03951       -0.49265
C          1.37703       -0.35821       -0.05171
C          1.31889        1.01120        0.10647
C          0.11109        1.68853        0.18485
C         -1.07770        0.95898        0.10960
N         -2.24423        1.64305        0.13127
C         -3.33303        1.46653        0.06709
N         -3.86993        2.58721       -0.49565
H         -3.25842        3.35099       -0.76085
H         -4.77715        2.53284       -0.94496
C         -4.01161        0.19491        0.08575
C         -3.28948       -1.05239        0.06792
N         -2.19349       -1.16505       -0.00698
C         -1.03851       -0.45439       -0.00568
C          0.20266       -1.12087       -0.10336
C          0.24680       -2.56010       -0.23861
N          0.26729       -3.69808       -0.34390
N         -3.84460       -2.24029        0.44339
H         -3.24573       -3.03582        0.63545
H         -4.79642       -2.26450        0.79179
H         -5.09298        0.16511       -0.02299
H          0.08854        2.77184        0.28740
H          4.56778        0.51419       -0.01850
