29
Coordinates from ORCA-job ./opt_b97-3c_parallel
N         -5.56900       -0.73249        0.00097
C         -4.43817       -0.56570        0.00072
C         -3.00270       -0.34117       -0.00006
C         -2.27751       -1.52189        0.00054
C         -0.90669       -1.75395        0.00005
C         -0.63508       -3.17986        0.00058
N         -0.44054       -4.30640        0.00090
C          0.15561       -0.81909       -0.00096
C          1.47068       -1.37132       -0.00135
C          2.58350       -0.55094       -0.00226
C          2.37356        0.77188       -0.00262
N          1.18180        1.36825       -0.00231
C          0.03620        0.61218       -0.00152
C         -1.15942        1.39039       -0.00163
C         -0.98151        2.84636       -0.00224
N         -0.85973        3.98336       -0.00247
C         -2.51232        0.97271       -0.00111
N         -3.48412        1.95885       -0.00204
H         -3.21882        2.93871       -0.00023
H         -4.46793        1.71009        0.00087
C          3.65916        1.33432       -0.00358
C          4.44786        0.12169       -0.00337
N          5.80998        0.19045       -0.00394
H          6.36758       -0.65620       -0.00365
H          6.28120        1.08831       -0.00472
N          3.89800       -0.86729       -0.00270
H          3.99080        2.36751       -0.00423
H          1.67769       -2.43716       -0.00113
H         -2.89609       -2.42298        0.00131
