29
Coordinates from ORCA-job ./opt_b97-3c_parallel
N         -5.59635       -1.79369       -0.62892
C         -4.58337       -1.31766       -0.39919
C         -3.28562       -0.72577       -0.14800
C         -2.33127       -1.72628        0.23476
C         -0.90479       -1.63839        0.38119
C         -0.36056       -2.90952        0.77188
N          0.05331       -3.91364        1.12604
C         -0.10687       -0.50501        0.20397
C         -0.52842        0.82764        0.17049
N          0.44126        1.83221        0.27519
C          1.77821        1.54840        0.24073
C          2.30210        0.26050       -0.07015
C          3.69343        0.69165       -0.19486
C          4.84891       -0.06357       -0.56116
N          5.78534       -0.66096       -0.82475
C          3.85248        2.07760        0.11766
N          2.62589        2.61446        0.37010
H          4.79812        2.64226        0.11471
C          1.32963       -0.81020        0.07839
C          2.31351       -1.85055       -0.04928
N          2.38435       -2.43892       -1.02859
C         -1.81682        1.37624        0.09095
C         -1.98349        2.82472        0.15462
N         -1.87952        3.95731        0.26814
C         -3.06297        0.65465       -0.17986
N         -3.98935        1.24110       -0.40645
H         -4.89046        0.82749       -0.64745
H         -4.12140        2.24940       -0.48236
H         -2.74289       -2.72952        0.34854
