22
Coordinates from ORCA-job ./opt_b97-3c_parallel
N         -0.65324       -3.56546        0.01863
C         -0.72054       -2.42631        0.00003
C         -0.73515       -0.99176       -0.00587
C         -1.95246       -0.33715       -0.02931
N         -3.14902       -0.85861       -0.07638
C         -3.90540        0.19953       -0.11507
C         -3.32228        1.38342       -0.08351
C         -2.01362        1.09163       -0.02450
N         -0.90508        1.85587        0.03717
C          0.33441        1.23407        0.05167
N          1.32450        2.21508        0.10709
C          2.65260        1.85354        0.09130
N          3.58057        0.84641        0.02499
C          2.91060       -0.34750       -0.03405
N          3.55582       -1.24050       -0.12717
H          3.39050       -2.24715       -0.19996
H          4.55917       -1.13318       -0.29159
N          1.67481       -0.95879       -0.04025
C          0.48432       -0.21780        0.00686
H          3.27730        2.76061        0.14879
H         -3.79600        2.36364       -0.11932
H         -4.98811        0.00358       -0.17442
