31
Coordinates from ORCA-job ./opt_b97-3c_parallel
N          5.85215        1.28524        0.00050
C          4.75061        0.98191        0.00053
C          3.35279        0.58399        0.00031
C          2.48941        1.66775        0.00174
C          1.10058        1.72942        0.00239
C          0.65540        3.11077        0.00374
N          0.32132        4.20423        0.00468
C          0.16157        0.67039        0.00124
C         -1.20909        1.05159        0.00221
C         -2.21928        0.10517        0.00056
C         -1.87077       -1.20520       -0.00383
N         -0.59833       -1.61568       -0.00501
C          0.45119       -0.73128       -0.00110
C          1.73210       -1.35724       -0.00195
C          1.73085       -2.82415       -0.00399
N          1.74745       -3.96742       -0.00428
C          3.02489       -0.77960       -0.00137
N          4.10956       -1.64002       -0.00344
H          3.96627       -2.64489       -0.00039
H          5.05569       -1.27276        0.00100
C         -2.97751       -2.09776       -0.02158
C         -3.96063       -1.03742       -0.00058
N         -5.26015       -1.46277        0.00038
H         -5.47778       -2.45317       -0.00509
H         -6.01531       -0.78441       -0.00117
C         -3.62938        0.37845       -0.00083
C         -4.40320        1.57927        0.00059
N         -5.28770        2.30327        0.00118
H         -3.05105       -3.18034        0.00996
H         -1.54025        2.08487        0.00280
H          2.99286        2.63764        0.00262
