36
Coordinates from ORCA-job ./opt_b97-3c_parallel
N         -4.47881       -3.16305        0.57452
C         -3.70567       -2.34669        0.36836
C         -2.72789       -1.29989        0.12478
C         -3.28220       -0.03248        0.17967
C         -2.70791        1.19194       -0.12348
C         -3.68858        2.26234       -0.18224
N         -4.47012        3.09468       -0.23137
C         -1.34763        1.48740       -0.32513
N         -1.10466        2.77411       -0.75822
H         -0.16032        3.05031       -1.00777
H         -1.87524        3.40672       -0.94542
C         -0.23105        0.62259       -0.16190
C         -0.26273       -0.79578       -0.17671
C         -1.39485       -1.64972       -0.15527
N         -1.18143       -2.99940       -0.34625
H         -0.31492       -3.29257       -0.78317
H         -1.98965       -3.60136       -0.46622
C          0.98453       -1.45174       -0.17881
C          2.29082       -0.86615       -0.11311
C          2.33753        0.55159        0.03012
C          3.71759        0.95449        0.11701
N          4.45759        2.10084        0.18680
H          4.00479        2.98231       -0.02965
H          5.46327        2.04068        0.07378
C          4.44800       -0.28102        0.15452
C          3.61122       -1.42492       -0.06711
N          4.01036       -2.72779       -0.14656
H          3.30633       -3.45551       -0.09282
H          4.95945       -2.96249        0.12269
H          5.51570       -0.34722        0.33986
C          1.05288        1.21235       -0.00071
N          1.32429        2.47779        0.45749
H          0.55183        3.03030        0.81416
H          2.24957        2.66242        0.83036
H          1.14664       -2.52526       -0.14223
H         -4.35133       -0.00284        0.39690
