29
Coordinates from ORCA-job ./opt_b97-3c_parallel
N         -4.18806       -3.29255       -0.33232
C         -3.43560       -2.44206       -0.20586
C         -2.48151       -1.36821       -0.06618
C         -3.00454       -0.08684       -0.06555
C         -2.35221        1.13358        0.07704
C         -3.28231        2.24823        0.10724
N         -4.02502        3.11788        0.13547
C         -0.96553        1.38807        0.16677
N         -0.63459        2.71529        0.34652
H         -1.37855        3.36593        0.57674
H          0.29227        2.93420        0.69318
C          0.10858        0.45958        0.11062
C          1.41925        1.00349        0.04725
C          2.53281        0.17777        0.03688
C          2.41755       -1.15135        0.11503
C          3.71634       -1.73393        0.08474
N          3.90351       -0.61650        0.01793
C          3.90963        0.51157       -0.09510
N          4.67573        1.59840       -0.39343
H          4.21818        2.45125       -0.69515
H          5.63331        1.45375       -0.69276
H          4.04142       -2.68707        0.48382
C          1.17172       -1.75296        0.14689
C          0.00442       -0.96281        0.11118
C         -1.15220       -1.74342        0.05505
H         -0.99745       -2.82198        0.06055
H          1.12418       -2.83960        0.17091
H          1.61849        2.06852       -0.02533
H         -4.09057       -0.03497       -0.16375
