31
Coordinates from ORCA-job ./opt_b97-3c_parallel
N         -6.09248       -0.51212        0.01741
C         -4.96969       -0.29912       -0.00546
C         -3.54406       -0.03133       -0.01750
C         -2.75225       -1.17340       -0.00609
C         -1.36468       -1.32975       -0.00792
C         -1.00376       -2.73474        0.00031
N         -0.73600       -3.84598        0.00606
C         -0.35479       -0.33572       -0.01267
C          0.99366       -0.77720       -0.00614
C          2.06057        0.11215       -0.00489
C          1.82921        1.45424       -0.00948
C          3.01994        2.23543        0.00390
C          3.92054        1.10439        0.00105
N          5.27260        1.31128        0.01482
H          5.65149        2.25154       -0.00428
H          5.90522        0.51760        0.00210
C          3.44615       -0.26922        0.00413
C          4.06480       -1.55476        0.00649
N          4.82702       -2.40542        0.01161
H          3.19134        3.30708       -0.02173
C          0.53273        1.94081       -0.02022
C         -0.57243        1.06775       -0.02252
C         -1.79307        1.75283       -0.03635
C         -3.10796        1.29707       -0.03632
N         -4.05004        2.29664       -0.05721
H         -5.02608        2.05345        0.08117
H         -3.76373        3.25255        0.12166
H         -1.71330        2.83943       -0.05011
H          0.39526        3.02026       -0.02522
H          1.26071       -1.82941       -0.00005
H         -3.32082       -2.10561        0.00506
