32
Coordinates from ORCA-job ./opt_b97-3c_parallel
N         -2.36221       -4.00922        0.10313
C         -2.22989       -2.87375        0.05968
C         -2.08037       -1.42321        0.01019
C         -3.31057       -0.73606       -0.03728
C         -3.53443        0.62952       -0.08780
C         -2.64381        1.68824       -0.08597
N         -3.28353        2.90731       -0.13653
H         -2.74328        3.75427        0.01030
H         -4.28764        2.94773       -0.00164
C         -1.23879        1.64065       -0.04119
C         -0.59794        2.95762       -0.02769
N         -0.11117        3.99247       -0.00860
C         -0.38698        0.50167       -0.00924
N          0.94241        0.82757        0.00015
C          1.91823       -0.08858        0.03116
C          1.63706       -1.42232        0.05650
C          2.73975       -2.33467        0.08914
C          3.51127       -1.11581        0.01013
N          4.83572       -1.43459       -0.12074
H          5.13330       -2.39063        0.03906
H          5.52518       -0.69522       -0.02567
C          3.29434        0.31429        0.03330
C          3.91684        1.59509        0.15846
N          4.92938        2.12410        0.20268
H          2.86729       -3.19702       -0.55817
C          0.31025       -1.81930        0.04534
C         -0.76200       -0.88097        0.01258
H          0.16757       -2.89467        0.06111
H         -4.58555        0.91979       -0.12970
N         -4.49164       -1.44578       -0.03929
H         -4.46755       -2.44113        0.15812
H         -5.36406       -0.95054        0.10929
