28
Coordinates from ORCA-job ./opt_b97-3c_parallel
N          3.12636        3.90351        0.57168
C          2.97035        2.77913        0.44232
C          2.73825        1.37304        0.30833
C          1.44756        0.79584        0.15246
N          0.31916        1.58269        0.06339
C         -0.87831        0.96422       -0.00106
C         -1.98821        1.79301       -0.14979
C         -3.40535        1.47478       -0.21538
N         -4.06515        0.26051       -0.05568
C         -3.34238       -0.88769        0.13693
N         -3.91003       -1.81794        0.29988
H         -4.91541       -1.70258        0.42255
H         -3.70309       -2.79031        0.52644
N         -2.08289       -1.11502        0.14576
C         -0.96181       -0.49067        0.10816
C          0.24534       -1.28837        0.18676
C          0.49082       -2.69489        0.29400
N         -0.12773       -3.55904       -0.12623
C          1.51204       -0.62007        0.08691
C          2.94391       -0.50427       -0.10796
C          3.56623       -1.69187       -0.60174
N          4.02982       -2.66034       -0.99144
C          3.76501        0.48811        0.36086
H          4.71649        0.70764       -0.12094
N         -4.37758        1.97840       -0.33680
H         -5.32868        2.00358       -0.70281
H         -4.01615        2.92798       -0.41970
H         -1.79955        2.85942       -0.24564
