34
Coordinates from ORCA-job ./opt_b97-3c_parallel
N         -3.97881       -3.55578        0.84721
C         -3.37192       -2.62460        0.57788
C         -2.60110       -1.44590        0.26415
C         -3.31647       -0.26658        0.15056
C         -2.85634        1.01513       -0.12701
C         -3.93994        1.96533       -0.29220
N         -4.79903        2.70682       -0.43839
C         -1.52225        1.46550       -0.20907
N         -1.37574        2.81531       -0.45147
H         -0.47751        3.14546       -0.78506
H         -2.19547        3.33790       -0.74330
C         -0.32884        0.70312       -0.10989
C          0.88177        1.42071       -0.07224
C          2.20518        0.87375        0.03658
C          2.32640       -0.53185       -0.19156
C          3.71385       -0.90035       -0.10179
N          4.42712       -2.06067       -0.20637
H          3.92463       -2.94031       -0.15775
H          5.40690       -2.05705        0.05339
C          4.38896        0.35023        0.10506
C          3.48954        1.44865        0.31501
N          3.79077        2.67812        0.82655
H          4.72066        2.83105        1.20143
H          3.03505        3.24776        1.19112
H          5.46939        0.45195        0.12870
C          1.07787       -1.25137       -0.27885
N          1.33198       -2.55683       -0.61153
H          0.56647       -3.09961       -0.99548
H          2.26126       -2.77099       -0.95724
C         -0.20977       -0.70213       -0.10666
C         -1.24096       -1.63615        0.06752
H         -0.94638       -2.68088        0.13745
H          0.97606        2.50244       -0.03293
H         -4.39639       -0.36937        0.27047
