29
Coordinates from ORCA-job ./opt_b97-3c_parallel
N         -5.80687        0.00051        0.00621
C         -4.66460        0.00036       -0.00975
C         -3.22600        0.00027       -0.00656
C         -2.61700       -1.24029       -0.00008
C         -1.26103       -1.56457        0.00014
C         -1.09843       -3.00227       -0.00049
N         -0.95243       -4.13401        0.00015
C         -0.12234       -0.71680        0.00124
C          1.13394       -1.38075        0.00211
C          2.32244       -0.67280        0.00339
C          2.32255        0.67246        0.00381
C          3.65481        1.20643        0.00516
C          4.45714       -0.00034        0.00546
N          5.82113       -0.00044        0.00633
H          6.33105        0.87570        0.00765
H          6.33091       -0.87667        0.00704
C          3.65462       -1.20697        0.00435
H          3.99876       -2.23302        0.00429
H          3.99911        2.23242        0.00580
C          1.13415        1.38060        0.00294
C         -0.12223        0.71685        0.00161
C         -1.26078        1.56479        0.00076
C         -1.09796        3.00248        0.00083
N         -0.95178        4.13419        0.00188
C         -2.61682        1.24073        0.00028
H         -3.30272        2.08371       -0.00173
H          1.22860        2.46313        0.00334
H          1.22822       -2.46329        0.00185
H         -3.30305       -2.08316       -0.00225
