28
Coordinates from ORCA-job ./opt_b97-3c_parallel
N         -5.38668       -1.78874       -0.00171
C         -4.32714       -1.36063       -0.00107
C         -2.98484       -0.80401       -0.00085
C         -2.00271       -1.78113       -0.00290
C         -0.61746       -1.67535       -0.00385
C          0.01718       -2.98446       -0.00658
N          0.49752       -4.02221       -0.00872
C          0.18947       -0.51831       -0.00233
N          1.53490       -0.78158       -0.00443
C          2.41773        0.22662       -0.00155
C          1.99328        1.51678        0.00487
N          0.69301        1.83141        0.00712
C         -0.25899        0.84130        0.00189
C         -1.60151        1.31642        0.00266
C         -1.76516        2.77119        0.00552
N         -1.90996        3.90786        0.00776
C         -2.81767        0.58952        0.00061
N         -3.99372        1.31973        0.00112
H         -4.89150        0.84632        0.00358
H         -3.96633        2.33432        0.00612
C          3.03883        2.47954        0.03083
C          4.05825        1.45495       -0.00166
C          3.83690        0.01976        0.00001
C          4.75744       -1.07114       -0.00228
N          5.64053       -1.79667       -0.00443
H          5.06549        1.86513        0.00334
H          3.06026        3.56292       -0.01086
H         -2.38292       -2.80503       -0.00430
