26
Coordinates from ORCA-job ./opt_b97-3c_parallel
N          5.69817       -0.01734        0.01129
C          4.55972        0.06315       -0.00689
C          3.12696        0.19205       -0.00363
C          2.52192       -1.05441       -0.00145
C          1.16926       -1.36655        0.00014
C          1.02351       -2.79645        0.00077
N          0.84737       -3.92436        0.00100
C          0.00177       -0.61029       -0.00022
N         -1.23074       -1.20134       -0.00037
C         -2.38858       -0.42099       -0.00174
N         -3.73791       -0.70405       -0.00279
C         -4.46131        0.48032       -0.00421
N         -5.56774        0.41996       -0.00520
H         -6.20262       -0.38334       -0.00500
H         -6.18970        1.23280       -0.00661
N         -3.53166        1.51419       -0.00399
C         -2.25262        0.99482       -0.00249
N         -1.07109        1.52479       -0.00167
C          0.03477        0.83990       -0.00089
C          1.09596        1.70373       -0.00021
C          2.44463        1.46604       -0.00243
N          3.02482        2.41087       -0.00313
H          2.93854        3.42672       -0.00168
H          4.02882        2.22464        0.00046
H          0.81986        2.76836        0.00110
H          3.21069       -1.90364       -0.00138
