30
Coordinates from ORCA-job ./opt_b97-3c_parallel
N         -6.10137       -0.41255       -0.00146
C         -4.96949       -0.25092       -0.00096
C         -3.53685       -0.02169        0.00006
C         -2.76917       -1.18089       -0.00073
C         -1.38103       -1.36339       -0.00069
C         -1.04278       -2.77361       -0.00232
N         -0.79158       -3.88877       -0.00342
C         -0.35346       -0.38812        0.00056
C         -0.53718        1.02248        0.00216
C         -1.74700        1.72217        0.00220
C         -3.07111        1.29607        0.00096
N         -3.98975        2.31800        0.00060
H         -3.68307        3.28450        0.00316
H         -4.98306        2.10870        0.00152
H         -1.63658        2.80740        0.00309
N          0.52437        1.87738        0.00400
C          1.77295        1.38685        0.00405
C          2.04784        0.05535        0.00164
C          3.44659       -0.26768        0.00098
C          4.10345       -1.53562        0.00226
N          4.93150       -2.32266        0.00173
C          3.89869        1.11628        0.00342
N          5.24384        1.38241        0.00469
H          5.91373        0.61871        0.00429
H          5.58527        2.33797        0.00557
C          2.93997        2.20229        0.00580
H          3.06350        3.27997        0.00444
C          0.99098       -0.84676       -0.00019
H          1.25387       -1.90065       -0.00200
H         -3.35648       -2.10094       -0.00126
