29
Coordinates from ORCA-job ./opt_b97-3c_parallel
N          5.73690        0.15788        0.26102
C          4.59916        0.07225        0.19218
C          3.16391       -0.05363        0.10550
C          2.38195        1.14723        0.05537
N          1.29391        1.20221        0.04492
C          0.13279        0.53116        0.03191
C          0.09241       -0.88480        0.03348
N         -1.11584       -1.51651        0.02328
C         -2.25744       -0.80533        0.00631
C         -2.28244        0.56927       -0.00686
C         -3.57969        1.18301       -0.04131
C         -4.10012       -0.16349       -0.04986
N         -5.46087       -0.25603       -0.12834
H         -5.90345       -1.15419        0.03505
H         -6.02123        0.58268       -0.01782
C         -3.51732       -1.48361        0.00338
H         -3.78872       -2.31540       -0.63951
H         -3.90423        1.98896        0.60982
C         -1.07243        1.26159        0.00941
C         -1.07989        2.70901        0.00493
N         -1.09415        3.85207        0.01276
C          1.25175       -1.70849        0.05061
C          1.07561       -3.14726        0.03766
N          0.95601       -4.28442        0.02506
C          2.60838       -1.33405        0.08973
H          3.33143       -2.14938        0.11756
N          2.84308        2.37586       -0.32514
H          2.22178        3.17634       -0.28856
H          3.84219        2.55145       -0.34049
