32
Coordinates from ORCA-job ./opt_b97-3c_parallel
N          5.56887        0.94134       -0.57893
C          4.47298        0.66341       -0.41077
C          3.08118        0.31898       -0.17994
C          2.31611        1.39679        0.22514
C          0.94044        1.51675        0.36915
C          0.61289        2.78429        0.99603
N          0.37726        3.78019        1.50546
C         -0.06888        0.55999        0.09063
C          0.14514       -0.85175        0.14735
C         -1.01720       -1.66046        0.26509
C         -2.29983       -1.15175        0.19850
C         -2.49495        0.17264       -0.07293
C         -3.86357        0.57064       -0.26761
C         -4.22097       -0.80356       -0.02265
N         -5.55936       -1.03992       -0.15428
H         -5.93144       -1.93775        0.13553
H         -6.19445       -0.25079       -0.20735
C         -3.45995       -1.98863        0.28134
H         -3.66193       -2.68746        1.08729
H         -4.24648        1.17341       -1.08591
C         -1.39879        1.03080       -0.15450
C         -1.69566        2.35052       -0.68344
N         -1.94023        3.37866       -1.11948
H         -0.98613       -2.73775        0.38872
C          1.39542       -1.54267        0.07333
C          1.37904       -2.99653        0.21417
N          1.38281       -4.13460        0.32728
C          2.67832       -1.02164       -0.23002
N          3.68097       -1.91956       -0.55385
H          3.51364       -2.91467       -0.44490
H          4.64131       -1.59550       -0.60585
H          2.88494        2.31118        0.41039
