21
Coordinates from ORCA-job ./opt_b97-3c_parallel
N         -0.96865       -3.58456        0.00015
C         -0.92356       -2.44309       -0.00012
C         -0.62368       -1.03959        0.00088
C         -1.68904       -0.15540        0.00182
N         -3.02320       -0.48122        0.00169
C         -3.69628        0.72922        0.00237
N         -2.77890        1.77377        0.00290
C         -1.50610        1.24673        0.00250
N         -0.30242        1.71947        0.00282
C          0.79266        1.02404        0.00202
C          2.03344        1.78353        0.00208
C          3.36459        1.45449        0.00162
C          3.83753        0.21900        0.00060
C          2.97343       -0.81614       -0.00040
N          1.71293       -1.33602       -0.00046
C          0.70606       -0.44369        0.00062
H          3.48795       -1.78987       -0.00140
H          4.91078        0.03771        0.00052
H          4.08551        2.26958        0.00239
H          1.87126        2.85840        0.00277
H         -4.79052        0.85829        0.00242
