25
Coordinates from ORCA-job ./opt_b97-3c_parallel
N          3.15005        3.80872        0.11064
C          2.81317        2.72686       -0.03724
C          2.37644        1.37390       -0.18116
C          3.17183        0.25382       -0.18200
C          2.29030       -0.81119       -0.10086
C          3.08584       -1.99891       -0.00992
N          3.52969       -2.90409       -0.54828
C          0.98757       -0.36528       -0.10502
C          1.00961        1.00852       -0.25294
C         -0.15157        1.77895        0.00023
C         -1.41496        1.08310       -0.05011
N         -2.48144        1.95314       -0.16388
C         -3.73219        1.43290       -0.15274
N         -4.61474        0.41181       -0.06309
C         -4.02142       -0.81565        0.10022
C         -2.61091       -1.14001        0.12923
C         -1.45751       -0.33325        0.04384
C         -0.25391       -1.08103        0.06022
C         -0.11594       -2.50682        0.19061
N         -0.03202       -3.64384        0.27365
H         -2.52379       -2.21369        0.23467
H         -4.82750       -1.56059        0.17670
H         -4.33757        2.34319       -0.27870
H         -0.07488        2.82882        0.27680
H          4.12242        0.25858        0.35109
