29
Coordinates from ORCA-job ./opt_b97-3c_parallel
N         -6.22125        0.01700        0.64253
C         -5.09578       -0.02171        0.44871
C         -3.67208       -0.06870        0.22105
C         -3.07903       -1.31540        0.27870
C         -1.75229       -1.67190        0.05451
C         -1.58776       -3.11657        0.07067
N         -1.47751       -4.25473        0.08556
C         -0.60882       -0.84141       -0.06151
N          0.56021       -1.54393       -0.11328
C          1.74402       -0.92736       -0.10525
C          1.84793        0.42132        0.05613
C          3.19501        0.68835        0.19476
C          3.86223        1.94937        0.39997
N          4.40719        2.93936        0.56939
C          3.86113       -0.52263        0.10136
C          2.98938       -1.66605       -0.10228
C          3.47098       -2.96966       -0.42872
N          3.69025       -4.07249       -0.63273
H          4.94522       -0.56144        0.18378
C          0.69827        1.21516        0.08941
C          0.85866        2.58781        0.52657
N          0.97865        3.66362        0.89395
C         -0.58005        0.59052       -0.09535
C         -1.71839        1.40334       -0.35840
C         -1.57752        2.68499       -1.02276
N         -1.48645        3.68582       -1.56728
C         -3.06876        1.10957       -0.17736
H         -3.76433        1.93262       -0.35478
H         -3.76651       -2.13756        0.48625
