29
Coordinates from ORCA-job ./opt_b97-3c_parallel
N         -2.93434       -4.19818       -0.00037
C         -2.80110       -3.06329       -0.00053
C         -2.61647       -1.63548       -0.00038
C         -1.42919       -0.95775       -0.00035
C         -1.71001        0.36725       -0.00017
N         -0.73421        1.28175       -0.00008
C          0.58788        0.91716       -0.00009
C          1.46286        2.02992        0.00005
C          0.91562        3.37788       -0.00004
N          0.50385        4.44484       -0.00013
C          2.85125        2.05289        0.00011
C          3.75017        1.00981        0.00003
C          3.51265       -0.35433       -0.00012
N          4.68289       -1.07939       -0.00014
H          4.65126       -2.09427        0.00019
H          5.58106       -0.60917        0.00042
C          2.27063       -1.02685       -0.00015
C          2.40192       -2.47984       -0.00034
N          2.51961       -3.61753       -0.00107
C          0.95470       -0.47277       -0.00019
C         -0.12328       -1.40446       -0.00042
H         -0.00030       -2.48241       -0.00062
H          4.79377        1.32255        0.00009
H          3.32290        3.03565        0.00019
C         -3.12224        0.69274        0.00008
C         -3.93512        1.86584       -0.00323
N         -4.50905        2.85403        0.00017
C         -3.61934       -0.67842       -0.00019
H         -4.66400       -0.98096       -0.00025
