28
Coordinates from ORCA-job ./opt_b97-3c_parallel
N          5.66564        0.98485        0.00032
C          4.54338        0.76703        0.00011
C          3.11523        0.51255       -0.00015
C          2.77155       -0.83493       -0.00015
C          1.52404       -1.46508       -0.00015
C          1.66402       -2.90808       -0.00068
N          1.76712       -4.04659       -0.00002
C          0.23242       -0.88464       -0.00029
C         -0.05583        0.51134       -0.00065
C          0.85366        1.57030       -0.00026
C          2.24422        1.60456       -0.00015
N          2.77340        2.87365        0.00027
H          3.78002        3.00421        0.00061
H          2.16450        3.68414        0.00058
H          0.39260        2.55940       -0.00033
N         -1.33592        0.97828       -0.00081
C         -2.36106        0.11638       -0.00064
C         -2.16215       -1.22940       -0.00036
C         -3.38782       -1.83580       -0.00062
C         -4.32294       -0.81040       -0.00092
C         -3.74874        0.52871       -0.00083
C         -4.45813        1.76751       -0.00110
N         -4.88758        2.82635       -0.00111
H         -5.38750       -1.03301       -0.00126
H         -3.59262       -2.90303       -0.00081
C         -0.88530       -1.76155       -0.00010
H         -0.80146       -2.84478        0.00048
H          3.62906       -1.51067       -0.00021
