39
Coordinates from ORCA-job ./opt_b97-3c_parallel
N         -5.08826       -1.85094        0.95229
C         -4.19748       -1.22110        0.60901
C         -3.05868       -0.40798        0.19070
C         -3.38256        0.82790       -0.38391
C         -2.51546        1.87225       -0.65611
C         -1.15324        2.00248       -0.41103
N         -0.72555        3.26491       -0.73877
H         -1.35909        3.87382       -1.24451
H          0.26975        3.40628       -0.87808
C         -0.21893        0.99610       -0.06114
C          1.13292        1.35993        0.17470
N          1.60894        2.59724        0.52893
H          2.55619        2.66189        0.88492
H          0.93851        3.29454        0.83518
C          2.27302        0.47612        0.23035
C          2.00646       -0.86710       -0.17987
C          3.25629       -1.55969       -0.36431
N          3.75011       -2.69405       -0.94525
H          3.13548       -3.23433       -1.54353
H          4.74726       -2.75200       -1.12009
C          4.26896       -0.61346        0.00621
C          3.69437        0.64443        0.38807
N          4.60776        1.49265        0.94902
H          4.27053        2.20955        1.58254
H          5.55778        1.16257        1.07531
H          5.33376       -0.82719        0.00851
C          0.61627       -1.24966       -0.13147
N          0.58282       -2.57528       -0.48836
H         -0.29977       -2.96712       -0.79927
H          1.44068       -3.01304       -0.80353
C         -0.50224       -0.38878        0.01526
C         -1.76681       -0.96609        0.32391
N         -1.73740       -2.21004        0.92280
H         -2.59934       -2.67593        1.18543
H         -0.84851       -2.67262        1.08387
H         -3.00044        2.76194       -1.06129
N         -4.69606        1.11971       -0.67324
H         -5.42670        0.48752       -0.36220
H         -4.95083        2.05968       -0.95479
