29
Coordinates from ORCA-job ./opt_b97-3c_parallel
N          4.29242        3.41534        0.32478
C          3.80374        2.38582        0.24283
C          3.17284        1.09502        0.14076
C          1.83041        0.83696        0.12097
C          1.66920       -0.51583        0.00563
N          0.45428       -1.09401       -0.04136
C         -0.66215       -0.30872        0.01676
C         -1.91113       -0.96647       -0.01081
C         -2.00991       -2.40805       -0.12924
N         -2.09685       -3.54553       -0.20944
C         -3.18538       -0.28516        0.08345
N         -3.58977        0.74013        0.00760
C         -2.98903        1.66462       -0.04071
N         -3.92470        2.56165       -0.47199
H         -4.89875        2.28800       -0.54100
H         -3.68805        3.54209       -0.57235
C         -1.60598        2.01622        0.12832
C         -0.53978        1.10949        0.11491
C          0.73687        1.68528        0.18335
H          0.87388        2.76180        0.26197
H         -1.42892        3.08614        0.21977
N         -4.36703       -0.87151        0.45920
H         -5.23347       -0.35283        0.36789
H         -4.42554       -1.88300        0.50793
C          2.90748       -1.26579       -0.06102
C          3.25870       -2.56838       -0.52795
N          3.72920       -3.60743       -0.59716
C          3.81563       -0.12787        0.03225
H          4.90181       -0.17775        0.01954
