27
Coordinates from ORCA-job ./opt_b97-3c_parallel
N         -4.19177       -3.28095       -0.47104
C         -3.75217       -2.22994       -0.38073
C         -2.84835       -1.15286       -0.13409
C         -3.32142        0.21599       -0.03215
C         -2.31168        1.15831        0.07048
C         -2.55841        2.57444        0.17910
N         -2.77414        3.69292        0.27003
C         -1.11175        0.47599        0.03006
C         -1.43438       -0.84591       -0.08038
N         -0.50885       -1.80704       -0.01680
C          0.80659       -1.47969        0.05779
C          1.57714       -2.63539        0.21429
C          2.93635       -2.80185        0.40776
C          3.92364       -1.84419        0.33155
C          3.77359       -0.51218       -0.00468
C          2.61660        0.25384       -0.17661
C          2.97223        1.53564       -0.75379
N          3.27318        2.53037       -1.23030
C          1.25265       -0.12232        0.00707
C          0.22739        0.87639        0.10948
C          0.47537        2.24970        0.49991
N          0.66589        3.32663        0.83302
H          4.72504        0.00117       -0.14555
H          4.94399       -2.19463        0.46980
H          3.27131       -3.81811        0.60289
H          1.02467       -3.57464        0.25658
H         -4.36393        0.52720       -0.03218
