31
Coordinates from ORCA-job ./opt_b97-3c_parallel
N          5.96409        0.12933        0.00685
C          4.82162        0.08446        0.01218
C          3.37062        0.01001        0.01240
C          2.90235       -1.29403        0.01557
C          1.60807       -1.80136       -0.00377
C          1.63043       -3.25193        0.00178
N          1.66607       -4.39466        0.00796
C          0.37844       -1.10119       -0.02384
C         -0.79783       -1.89814       -0.08026
C         -2.06062       -1.32960       -0.09388
C         -2.16255        0.02882       -0.03224
N         -1.07506        0.81176        0.01237
C          0.20156        0.31617        0.00566
C          1.21019        1.32466        0.02230
C          0.73417        2.71112        0.03635
N          0.37792        3.79832        0.04169
C          2.62025        1.19515        0.01276
N          3.36887        2.36003        0.00705
H          4.38288        2.31854        0.00756
H          2.90838        3.26466        0.01532
C         -3.47622        0.60251       -0.02883
C         -3.90810        1.96516       -0.04660
N         -4.81504        2.66104       -0.00964
C         -3.90255       -0.78137       -0.04523
N         -5.25987       -0.89394        0.09147
H         -5.70627       -1.78820       -0.08070
H         -5.82825       -0.05420        0.03210
C         -3.27785       -2.07868       -0.17382
H         -3.52704       -2.95708        0.41303
H         -0.77883       -2.98278       -0.12176
H          3.69193       -2.05011        0.02626
