31
Coordinates from ORCA-job ./opt_b97-3c_parallel
N         -5.33816       -1.70885        1.19419
C         -4.31267       -1.36110        0.82806
C         -3.00295       -0.93046        0.37703
C         -2.08313       -1.96176        0.26356
C         -0.74653       -1.93538       -0.12491
C         -0.22682       -3.27801       -0.30013
N          0.16741       -4.34182       -0.43567
C          0.11647       -0.81413       -0.14637
C          1.50450       -1.09472       -0.22861
C          2.43626       -0.09155       -0.05300
C          2.04683        1.18442        0.23100
C          3.18625        1.94781        0.46685
C          4.28716        1.11403        0.30248
C          3.82185       -0.15430       -0.02202
C          4.63876       -1.31712       -0.25390
N          5.27902       -2.24299       -0.45019
H          5.32928        1.40264        0.41793
H          3.21954        3.00350        0.72659
C          0.70361        1.53566        0.25168
C          0.40530        2.86142        0.75883
N          0.17984        3.90135        1.17593
C         -0.29181        0.55279       -0.05006
C         -1.59785        1.00459       -0.37716
C         -1.69308        2.22774       -1.16562
N         -1.77152        3.17416       -1.80283
C         -2.82770        0.37271       -0.10174
N         -3.98090        1.11143       -0.28186
H         -3.92731        1.98819       -0.79050
H         -4.87689        0.63595       -0.24814
H          1.90290       -2.09468       -0.37154
H         -2.48895       -2.95360        0.47387
