27
Coordinates from ORCA-job ./opt_b97-3c_parallel
N          5.77961        0.00260        0.00613
C          4.63692       -0.01017        0.00422
C          3.19372       -0.00854        0.00213
C          2.58619        1.23317        0.00159
C          1.23428        1.56242       -0.00006
C          1.04722        3.00513       -0.00041
N          0.91906        4.14110       -0.00062
C          0.09783        0.71638       -0.00129
N         -1.08725        1.40248       -0.00249
C         -2.23322        0.72052       -0.00352
C         -2.34952       -0.61647       -0.00356
N         -3.63878       -1.02331       -0.00464
C         -4.25685       -0.07578       -0.00522
N         -5.62059       -0.10491       -0.00631
H         -6.11549       -0.98984       -0.00748
H         -6.15513        0.75629       -0.00758
C         -3.55603        1.18972       -0.00467
H         -3.96050        2.19658       -0.00516
C         -1.18361       -1.36145       -0.00239
C          0.08911       -0.72032       -0.00133
C          1.22193       -1.57694       -0.00038
C          1.05277       -3.01749       -0.00088
N          0.93829       -4.15482       -0.00111
C          2.57713       -1.24777        0.00122
H          3.27116       -2.09097        0.00176
H         -1.31456       -2.43902       -0.00248
H          3.27971        2.07614        0.00247
