28
Coordinates from ORCA-job ./opt_b97-3c_parallel
N          5.72915        1.19721       -0.34827
C          4.64006        0.86328       -0.25293
C          3.27063        0.42475       -0.12942
C          2.25169        1.43102       -0.05023
N          1.17910        1.23974       -0.06314
C          0.18701        0.33759       -0.04940
C          0.45522       -1.05645       -0.00919
N         -0.58317       -1.94185        0.03566
C         -1.84741       -1.48982        0.03017
C         -2.98449       -2.38265        0.06630
C         -4.02536       -1.37056        0.02015
C         -3.53699       -0.07410       -0.03640
C         -4.36806        1.10102       -0.10413
N         -5.04102        2.02265       -0.16276
C         -2.16129       -0.15770       -0.02842
C         -1.14705        0.79912       -0.06835
C         -1.44805        2.21341       -0.12642
N         -1.66983        3.33358       -0.17722
H         -5.09723       -1.55568        0.02210
H         -3.03126       -3.33277        0.58901
C          1.76701       -1.60692       -0.03095
C          1.91065       -3.04972       -0.01247
N          2.04224       -4.18529       -0.00401
C          3.00774       -0.94531       -0.10253
H          3.89073       -1.58354       -0.14848
N          2.43639        2.70341        0.41187
H          1.66307        3.35932        0.39002
H          3.37572        3.08399        0.45848
