30
Coordinates from ORCA-job ./opt_b97-3c_parallel
N         -5.84614       -0.93374       -0.53458
C         -4.73103       -0.79159       -0.33288
C         -3.33753       -0.64755       -0.05149
C         -2.43113       -1.76609       -0.18100
N         -1.10449       -1.62712        0.03647
C         -0.49350       -0.43104        0.12176
N          0.58476       -1.13180        0.36680
C          1.69454       -0.48860        0.13549
C          1.82674        0.81172       -0.25382
C          3.14136        1.10534       -0.44844
C          3.88111        0.03442       -0.17179
N          5.22018        0.01172       -0.25840
H          5.75922        0.87693       -0.25152
H          5.76260       -0.70139        0.22868
C          3.03609       -0.98096        0.18779
C          3.32219       -2.33420        0.55119
N          3.50611       -3.42179        0.84836
H          3.52905        2.07131       -0.76814
C          0.58188        1.52160       -0.38646
C          0.67064        2.85895       -0.89118
N          0.27566        2.97497       -1.95754
C         -0.61680        0.93492       -0.03474
C         -1.89616        1.24102        0.33970
C         -1.79430        2.36433        1.22248
N         -1.67111        3.25338        1.92742
C         -3.06715        0.56008        0.53117
H         -3.77344        0.92603        1.28006
N         -2.30213       -2.82952       -0.44314
H         -3.31874       -2.91309       -0.44063
H         -1.94540       -3.73161       -0.75701
