27
Coordinates from ORCA-job ./opt_b97-3c_parallel
N         -5.67853       -0.23218        0.01648
C         -4.53629       -0.18956        0.01146
C         -3.09455       -0.11464        0.00596
C         -2.34074       -1.33626        0.00065
N         -1.25422       -1.44550       -0.00572
C         -0.09126       -0.78083       -0.01028
C          1.08362       -1.55192       -0.01852
C          2.30922       -0.90086       -0.02321
N          3.56337       -1.40668       -0.03147
C          4.25639       -0.51155       -0.03306
N          5.61436       -0.64178       -0.04097
H          6.21073        0.17841       -0.03970
H          6.04403       -1.55987       -0.04365
C          3.65922        0.80586       -0.02639
C          2.30112        0.45055       -0.01965
N          1.21873        1.24188       -0.01206
C         -0.00934        0.63915       -0.00721
C         -1.14344        1.49312        0.00059
C         -0.93003        2.92719        0.00291
N         -0.78052        4.06055        0.00483
C         -2.50773        1.15136        0.00607
H         -3.21022        1.98498        0.01099
H          4.14541        1.77597       -0.02684
H          1.04030       -2.63900       -0.02104
N         -2.88743       -2.58904        0.02180
H         -2.29750       -3.41284       -0.00293
H         -3.89517       -2.70779        0.01166
