28
Coordinates from ORCA-job ./opt_b97-3c_parallel
N         -5.60550        0.02958        0.56831
C         -4.47113        0.00816        0.42827
C         -3.04116       -0.03597        0.24491
C         -2.39696        1.23214        0.10343
N         -1.31308        1.29839        0.16197
C         -0.08926        0.75545        0.15540
C          0.99923        1.64458        0.23287
C          0.83807        3.07449        0.38232
N          0.72603        4.20587        0.50048
C          2.27091        1.11941        0.14101
C          2.51124       -0.18736       -0.09697
N          3.83958       -0.40101       -0.25649
C          4.38279        0.58010       -0.13804
C          3.54436        1.72548        0.12555
H          3.84579        2.75684        0.27903
H          5.46026        0.52278       -0.23898
C          1.45293       -1.09801       -0.17735
C          1.84476       -2.42365       -0.61240
N          2.17364       -3.45634       -0.97689
C          0.10514       -0.65209        0.03682
C         -1.00401       -1.55919        0.16581
C         -0.81362       -2.97894        0.37361
N         -0.69941       -4.10098        0.56071
C         -2.38172       -1.26592        0.27870
H         -3.04979       -2.11727        0.41898
N         -2.77557        2.19553       -0.78720
H         -2.21877        3.03992       -0.86188
H         -3.75261        2.26105       -1.05213
