31
Coordinates from ORCA-job ./opt_b97-3c_parallel
N         -3.84853       -3.51817       -0.00219
C         -3.40769       -2.46448       -0.00222
C         -2.87669       -1.12461       -0.00137
C         -3.68698       -0.00395       -0.00014
C         -2.87650        1.11552        0.00116
C         -3.40820        2.45962        0.00175
N         -3.84819        3.51323        0.00215
C         -1.54360        0.68792        0.00101
C         -1.54379       -0.69523        0.00065
C         -0.34653       -1.41893        0.00029
C         -0.38199       -2.86675        0.00131
N         -0.38716       -4.00983        0.00284
C          0.88292       -0.71519        0.00111
C          2.06903       -1.47639        0.00085
C          3.42790       -1.00667       -0.00031
N          3.88457       -0.00248        0.00189
C          3.42798        1.00182        0.00156
N          4.47115        1.88582        0.00206
H          5.43137        1.56237        0.00281
H          4.29288        2.88535        0.00214
C          2.06876        1.47060        0.00145
C          0.88255        0.70928        0.00180
C         -0.34662        1.41244        0.00235
C         -0.38234        2.86017        0.00345
N         -0.38703        4.00231        0.00536
H          2.09501        2.55741        0.00116
N          4.47128       -1.89026       -0.00690
H          4.29354       -2.88965        0.00063
H          5.43115       -1.56605        0.00428
H          2.09547       -2.56322        0.00024
H         -4.77456       -0.00326       -0.00050
