25
Coordinates from ORCA-job ./opt_b97-3c_parallel
N         -5.35046        0.04381        0.01174
C         -4.20962        0.10354       -0.00192
C         -2.77179        0.14237       -0.00210
C         -2.12587       -1.13908       -0.00072
C         -0.72248       -1.45394       -0.00066
C         -0.45884       -2.86870        0.00035
N         -0.23055       -3.98817        0.02599
C          0.36012       -0.57319       -0.00074
N          1.59950       -1.14999       -0.00102
C          2.72863       -0.33557       -0.00113
C          2.53819        1.06628       -0.00062
N          3.82416        1.57630       -0.00147
C          4.73057        0.60259       -0.00234
C          4.06085       -0.54559       -0.00189
H          4.52584       -1.52921       -0.00241
H          5.82294        0.74074       -0.00320
N          1.33955        1.54925        0.00022
C          0.26339        0.81525       -0.00048
C         -0.77522        1.73107       -0.00122
C         -2.18303        1.39908       -0.00273
N         -2.69100        2.38849       -0.00398
H         -3.69882        2.22769       -0.00332
H         -2.57595        3.40123       -0.00638
H         -0.51673        2.79969       -0.00094
H         -2.79859       -1.99505       -0.00001
