29
Coordinates from ORCA-job ./opt_b97-3c_parallel
N         -6.15394       -0.23755       -0.00187
C         -5.01940       -0.10295       -0.00218
C         -3.58652        0.02560       -0.00146
C         -2.86248       -1.21046       -0.00073
C         -1.44118       -1.44055        0.00019
C         -1.15659       -2.84996        0.00077
N         -0.89218       -3.96125        0.00105
C         -0.43064       -0.46987        0.00064
C         -0.56978        0.92559        0.00013
N          0.54296        1.77876        0.00051
C          1.82198        1.27524        0.00156
N          2.95716        2.05553        0.00215
C          4.01049        1.17107        0.00320
N          5.01791        1.63441        0.00384
H          5.78982        0.96308        0.00425
H          5.46589        2.55269        0.00371
C          3.46996       -0.15786        0.00316
C          4.29015       -1.32485        0.00434
N          4.97921       -2.23475        0.00499
C          2.02847       -0.12661        0.00224
C          0.92521       -1.03233        0.00164
H          1.14543       -2.09336        0.00204
C         -1.69126        1.73470       -0.00091
C         -3.07418        1.31296       -0.00177
N         -3.64198        2.26941       -0.00223
H         -4.63377        2.02890       -0.00283
H         -3.61012        3.28828       -0.00203
H         -1.50176        2.81559       -0.00123
H         -3.48775       -2.10281       -0.00092
