36
Coordinates from ORCA-job ./opt_b97-3c_parallel
N         -4.57272       -2.21683        1.05393
C         -3.76176       -1.50797        0.66868
C         -2.72171       -0.59439        0.20045
C         -3.18010        0.66364       -0.21162
C         -2.40886        1.75660       -0.56012
C         -1.04875        1.97436       -0.38797
N         -0.71127        3.24713       -0.77800
H          0.27237        3.45375       -0.92055
H         -1.38698        3.78861       -1.30515
C         -0.03777        1.05285       -0.01826
C          1.24383        1.56993        0.34939
N          1.46019        2.84038        0.82370
H          2.32725        3.03299        1.31224
H          0.64934        3.40301        1.05939
C          2.35130        0.73666        0.32253
C          2.25421       -0.52707       -0.10052
C          3.56249       -1.09573       -0.14690
N          3.74741       -0.03884        0.21037
C          3.72616        1.03434        0.56982
H          4.15292        1.83574        1.15973
N          4.31678       -2.21098       -0.36316
H          5.29093       -2.21178       -0.08035
H          3.85384       -3.10684       -0.45944
C          1.02085       -1.11289       -0.35404
N          1.06848       -2.36938       -0.90892
H          1.95928       -2.69257       -1.27040
H          0.22639       -2.72469       -1.34911
C         -0.18104       -0.36816       -0.12473
C         -1.39517       -1.08412        0.11300
N         -1.27374       -2.41748        0.45240
H         -0.35434       -2.84163        0.51712
H         -2.09285       -2.96172        0.70134
H         -2.97707        2.61672       -0.91766
N         -4.53249        0.90516       -0.29437
H         -5.17204        0.23388        0.11855
H         -4.85270        1.86080       -0.40480
