38
Coordinates from ORCA-job ./opt_b97-3c_parallel
N         -5.31137       -2.51750       -0.19371
C         -4.47926       -1.73544       -0.12388
C         -3.42024       -0.73281       -0.05358
C         -3.83727        0.55750        0.29976
C         -3.09478        1.72227        0.20338
C         -1.75006        1.92839       -0.08357
N         -1.50695        3.26107       -0.29981
H         -2.30150        3.87446       -0.44363
H         -0.63932        3.50983       -0.76332
C         -0.70214        0.97289       -0.12361
C         -0.88544       -0.43082       -0.18996
C          0.28163       -1.21959       -0.14206
C          1.64220       -0.78191       -0.01778
C          1.85560        0.62437       -0.12201
C          3.27848        0.85856       -0.14155
N          4.05996        1.93727       -0.45422
H          5.05435        1.79039       -0.59299
H          3.62692        2.73466       -0.90742
C          3.86826       -0.42663        0.12118
C          5.23530       -0.74975        0.39640
N          6.37466       -0.80769        0.31954
C          2.88881       -1.47838        0.13872
N          2.95957       -2.81411        0.42079
H          2.10738       -3.30282        0.67346
H          3.83656       -3.18346        0.77525
C          0.64860        1.42469       -0.10898
N          1.11944        2.68903        0.14077
H          0.46944        3.37744        0.50457
H          2.10159        2.80024        0.36901
H          0.31270       -2.30555       -0.12173
C         -2.09959       -1.15742       -0.32348
N         -1.98188       -2.47012       -0.73985
H         -1.11609       -2.75275       -1.18493
H         -2.82607       -2.95929       -1.01914
H         -3.67582        2.63323        0.35753
N         -5.14654        0.77425        0.66382
H         -5.39308        1.66259        1.08621
H         -5.72779       -0.02919        0.87989
