32
Coordinates from ORCA-job ./opt_b97-3c_parallel
N         -5.85691       -0.57214       -1.32475
C         -4.78952       -0.49157       -0.92401
C         -3.42939       -0.40309       -0.42809
C         -2.77694       -1.62511       -0.35827
C         -1.48429       -1.93009        0.06049
C         -1.29183       -3.36331        0.16827
N         -1.15465       -4.49512        0.24739
C         -0.38744       -1.04107        0.15729
C          0.89409       -1.63218        0.26283
C          2.03578       -0.86569        0.14386
C          1.97147        0.47801       -0.11460
C          3.28560        0.92731       -0.30174
C          3.75796        2.25194       -0.61649
N          4.14951        3.29342       -0.87644
C          4.13730       -0.15772       -0.13094
C          3.36171       -1.27180        0.14714
C          3.85723       -2.60641        0.36091
N          4.24006       -3.66779        0.54081
H          5.22174       -0.13917       -0.21493
C          0.73247        1.12407       -0.14907
C          0.69350        2.49203       -0.63069
N          0.64433        3.56448       -1.02297
C         -0.46475        0.38256        0.11049
C         -1.63592        1.10506        0.45831
C         -1.45870        2.26386        1.32770
N         -1.32367        3.15874        2.02627
C         -2.97108        0.79484        0.13146
N         -3.92432        1.77182        0.34107
H         -4.90578        1.52552        0.26223
H         -3.68033        2.58795        0.89306
H          1.04572       -2.70104        0.38159
H         -3.39372       -2.48305       -0.63450
