32
Coordinates from ORCA-job ./opt_b97-3c_parallel
N          6.18039        0.38562        0.37682
C          5.06871        0.15577        0.24156
C          3.65473       -0.11932        0.08105
C          3.21552       -1.44383        0.09823
C          1.90893       -1.89089       -0.06323
C          0.69082       -1.20043       -0.11519
C         -0.40150       -2.07978       -0.17369
C         -1.70515       -1.62331       -0.15551
C         -1.95738       -0.28519        0.01195
C         -3.34857        0.07276        0.13720
C         -4.34963        1.09002        0.02564
N         -5.12887        1.69790        0.60074
C         -3.63507       -1.33548       -0.02299
N         -4.88826       -1.87967        0.06131
H         -5.68717       -1.25327        0.05521
H         -5.03220       -2.83882       -0.23385
C         -2.82443       -2.51389       -0.20767
H         -2.98641       -3.27936       -0.96157
C         -0.89439        0.62688        0.08083
C         -1.25965        1.95373        0.54135
N         -1.55790        2.98811        0.92600
C          0.46238        0.20201       -0.10207
C          1.49723        1.15719       -0.31007
C          1.20602        2.47072       -0.85258
N          1.00165        3.50181       -1.30186
C          2.88038        1.00008       -0.19086
H          3.46340        1.91461       -0.32290
H         -0.24915       -3.15656       -0.22777
H          1.82987       -2.97756       -0.08115
N          4.14330       -2.44497        0.24913
H          3.82897       -3.39377        0.41678
H          5.09445       -2.19967        0.50804
