32
Coordinates from ORCA-job ./opt_b97-3c_parallel
N         -6.21117       -0.99711       -0.00350
C         -5.09234       -0.76761        0.00049
C         -3.67637       -0.49077        0.01015
C         -3.28532        0.75822       -0.43076
C         -2.02951        1.36091       -0.37405
C         -2.09337        2.67108       -0.99409
N         -2.16083        3.69294       -1.50172
C         -0.77491        0.79994        0.00102
C          0.32493        1.67096        0.26155
C          0.16570        3.01724        0.78126
N          0.05391        4.07073        1.21044
C          1.63750        1.20496        0.19252
C          1.88917       -0.09620       -0.15815
C          0.83441       -1.00749       -0.22909
C          1.15903       -2.31455       -0.76987
N          1.41453       -3.33489       -1.21707
C         -0.50629       -0.60024        0.03962
C         -1.46074       -1.58652        0.42065
C         -1.02995       -2.81858        1.05488
N         -0.70944       -3.78609        1.57232
C         -2.85091       -1.50069        0.46308
H         -3.37830       -2.38345        0.83163
C          3.27555       -0.44238       -0.35235
C          4.26633       -1.34486       -0.85518
N          5.06647       -2.15302       -0.74393
C          3.62109        0.89545        0.07047
C          2.79576        2.03455        0.38355
H          2.93866        2.72964        1.20718
N          4.88328        1.40177        0.22526
H          5.68476        0.78433        0.13974
H          5.01912        2.34180        0.58084
H         -4.10298        1.37931       -0.80313
