27
Coordinates from ORCA-job ./opt_b97-3c_parallel
N         -2.38177       -4.19715       -0.57065
C         -2.32355       -3.10025       -0.25941
C         -2.20447       -1.72566        0.11342
C         -3.28246       -0.87737       -0.04491
C         -2.63968        0.33900       -0.16295
C         -3.54949        1.30486        0.36814
N         -4.24716        2.09882        0.80256
C         -1.21650        0.24969       -0.06390
C         -0.94119       -1.05885        0.12216
N          0.29446       -1.55963        0.31087
C          1.34105       -0.69056        0.28818
N          2.56916       -1.24855        0.45848
C          3.62302       -0.51842        0.05688
N          4.31410       -1.30878        0.40549
H          5.22890       -0.99906        0.73434
H          4.31884       -2.32601        0.48727
C          4.03168        0.61687       -0.58533
C          3.28633        1.71150       -0.48823
C          2.17058        1.68780        0.29432
C          1.11427        0.71305        0.13124
C         -0.19851        1.19290       -0.05877
C         -0.49623        2.59676       -0.20718
N         -0.71302        3.71256       -0.32151
H          2.09194        2.42769        1.08588
H          3.57499        2.62632       -1.00245
H          4.93072        0.62227       -1.20066
H         -4.11807       -1.13861       -0.69296
