23
Coordinates from ORCA-job ./opt_b97-3c_parallel
N         -2.92076       -3.57723       -0.11214
C         -2.62629       -2.47462       -0.17122
C         -2.25573       -1.09488       -0.19921
C         -0.90672       -0.65396       -0.20562
C         -0.98178        0.72120       -0.03890
C         -2.29928        1.09607       -0.02804
C         -2.92600        2.37283        0.11369
N         -2.90620        3.36265       -0.45722
C         -3.10946       -0.01625       -0.16154
H         -4.07049       -0.08039        0.34480
C          0.20325        1.50500        0.12592
C          1.42748        0.85195        0.08299
N          2.51625        1.64662        0.18153
C          3.72918        0.98475        0.10075
N          4.47150       -0.16839       -0.04541
C          3.64426       -1.26508       -0.17277
N          2.37128       -1.50505       -0.17842
C          1.51239       -0.53998       -0.06632
C          0.32374       -1.37290       -0.07720
H          0.10574       -2.26291        0.51207
H          4.40346       -2.05210       -0.29405
H          4.43051        1.82617        0.20433
H          0.10977        2.57940        0.25491
