28
Coordinates from ORCA-job ./opt_b97-3c_parallel
N         -3.32267       -3.50735       -0.00159
C         -2.87139       -2.45745       -0.00142
C         -2.32802       -1.12148       -0.00070
C         -3.13838       -0.00144       -0.00040
C         -2.32866        1.11907        0.00014
C         -2.87266        2.45468        0.00147
N         -3.32406        3.50447        0.00267
C         -0.99310        0.68897       -0.00022
C         -0.99256       -0.69024       -0.00090
C          0.20718       -1.40933       -0.00120
C          0.12583       -2.85775       -0.00171
N          0.08624       -4.00039       -0.00200
C          1.45468       -0.71493       -0.00064
C          2.61289       -1.52999       -0.00094
C          3.96657       -1.22934       -0.00056
C          4.58377        0.00123        0.00007
C          3.96592        1.23146        0.00067
C          2.61200        1.53129        0.00068
C          1.45426        0.71545        0.00008
C          0.20620        1.40889        0.00029
C          0.12376        2.85721        0.00106
N          0.08356        3.99994        0.00173
H          2.49673        2.60833        0.00123
H          4.63648        2.08819        0.00120
H          5.67148        0.00155        0.00013
H          4.63769       -2.08571       -0.00091
H          2.49836       -2.60712       -0.00141
H         -4.22651       -0.00198       -0.00016
