28
Coordinates from ORCA-job ./opt_b97-3c_parallel
N          5.63884       -0.02471       -0.02975
C          4.49895        0.06089       -0.03295
C          3.05244        0.15378       -0.02928
C          2.40538       -1.07578        0.01509
C          1.04704       -1.39145        0.05351
C          0.82373       -2.82576        0.10522
N          0.66783       -3.95782        0.13928
C         -0.07282       -0.53108        0.03976
N         -1.29250       -1.14643        0.11579
C         -2.41316       -0.40581        0.08442
C         -2.36263        0.95741       -0.03819
N         -1.18896        1.60873       -0.09856
C         -0.03422        0.88745       -0.05052
C          1.09496        1.70877       -0.09444
C          2.45669        1.41844       -0.07185
N          3.26655        2.52739       -0.10518
H          2.85650        3.44059        0.05787
H          4.25938        2.41210        0.07208
H          0.87104        2.77489       -0.14926
C         -3.60698        1.66060       -0.09715
C         -4.18846        0.34555        0.06037
N         -5.55241        0.38602        0.15367
H         -6.03714        1.24619       -0.07879
H         -6.07460       -0.48311        0.12334
C         -3.70489       -1.01253        0.17878
H         -4.05419       -1.85551       -0.40867
H         -3.87041        2.53531        0.48861
H          3.07721       -1.93612        0.03169
