30
Coordinates from ORCA-job ./opt_b97-3c_parallel
N         -3.42666       -4.02810        0.06411
C         -3.15070       -2.92001        0.04490
C         -2.78708       -1.52414        0.02348
C         -3.66797       -0.45684        0.00606
C         -2.92563        0.71933       -0.01606
C         -3.52448        2.02976       -0.04226
N         -4.01405        3.06180       -0.06334
C         -1.56978        0.37447       -0.01068
C         -1.50610       -1.00545        0.01538
C         -0.29213       -1.67286        0.02427
C          0.89527       -0.93513        0.00832
C          2.05888       -1.71105        0.01741
C          3.41673       -1.23929       -0.00363
N          3.80633       -0.20435        0.00027
C          3.38695        0.81886       -0.00799
N          4.40235        1.73485        0.00821
H          5.36231        1.44414        0.14952
H          4.18142        2.72153        0.10217
C          2.02126        1.26995       -0.03248
C          0.85358        0.48559       -0.01678
C         -0.40126        1.14752       -0.02590
C         -0.49347        2.59156       -0.04509
N         -0.54478        3.73343       -0.05856
H          2.01229        2.35685       -0.05567
N          4.44460       -2.14007       -0.02407
H          5.40192       -1.83208       -0.14509
H          4.24108       -3.12951       -0.12478
H          2.00102       -2.79784        0.03690
H         -0.27490       -2.76113        0.04335
H         -4.75362       -0.52479        0.00543
