27
Coordinates from ORCA-job ./opt_b97-3c_parallel
N         -3.04156       -3.07995       -1.12413
C         -3.31365       -2.41304       -0.23668
C         -2.62378       -1.16888       -0.09864
C         -1.33838       -0.70011       -0.07576
C         -1.31993        0.69426        0.09942
C         -2.60076        1.16442        0.21368
C         -3.20065        2.44519        0.42403
N         -2.81841        3.07702        1.29762
C         -3.44842        0.00203        0.08612
H         -4.53411        0.00826        0.12913
N         -0.16437        1.44596        0.15702
C          1.03393        0.74977        0.04857
N          2.09941        1.49657        0.10081
C          3.35631        1.20635       -0.06653
N          3.69398        2.12896       -0.56862
H          4.68348        1.96124       -0.74791
H          3.51348        3.09274       -0.84681
C          3.91265       -0.04746       -0.05543
C          3.14499       -1.18575       -0.00406
N          3.49036       -2.01588        0.63726
H          3.15313       -2.97672        0.67958
H          4.41295       -2.01802        1.07066
N          2.04502       -1.29478       -0.14991
C          1.09968       -0.70217       -0.10420
C         -0.13046       -1.45560       -0.18770
H         -0.14456       -2.53591       -0.31020
H          4.99722       -0.13908       -0.11366
