28
Coordinates from ORCA-job ./opt_b97-3c_parallel
N         -2.57541       -4.31733       -0.02607
C         -2.44692       -3.18196       -0.01913
C         -2.26412       -1.75401       -0.01018
C         -3.27568       -0.80565        0.00557
C         -2.68734        0.45467        0.01136
C         -3.44347        1.68071        0.03000
N         -4.06172        2.64177        0.04557
C         -1.29890        0.28241       -0.00107
C         -1.05644       -1.07432       -0.01377
C          0.23011       -1.58769       -0.02587
C          1.32015       -0.70806       -0.02454
C          2.58461       -1.32624       -0.03255
C          3.86492       -0.75125       -0.03074
N          4.92677       -1.61183       -0.03486
H          5.85530       -1.24542        0.14369
H          4.75906       -2.59604        0.14292
C          4.16379        0.61202       -0.02569
C          3.20557        1.67512       -0.02195
N          2.11983        1.54675       -0.01491
C          1.08730        0.68848       -0.01362
C         -0.23456        1.19221       -0.00142
C         -0.47582        2.61959        0.01028
N         -0.65246        3.74894        0.01971
H          3.38074        2.74408       -0.03919
H          5.19480        0.95913       -0.02613
H          2.57724       -2.41499       -0.03981
H          0.38052       -2.66539       -0.03460
H         -4.34354       -1.01243        0.01306
