25
Coordinates from ORCA-job ./opt_b97-3c_parallel
N         -5.20159       -1.06768       -0.02250
C         -4.09472       -0.78396       -0.00437
C         -2.70282       -0.39436       -0.00228
C         -1.98911       -1.58055       -0.00513
C         -0.55301       -1.72329       -0.00092
C         -0.35325       -3.15131       -0.00046
N          0.23640       -4.13013        0.00623
C          0.41274       -0.73094        0.00007
N          1.70289       -1.31102        0.00337
C          2.84788       -0.52171        0.00326
C          2.63299        0.87274       -0.00251
N          3.87797        1.32402       -0.00371
C          4.73747        0.29381        0.00138
N          4.10193       -0.84684        0.00633
H          5.80611        0.56242        0.00071
N          1.41726        1.29494       -0.00534
C          0.27595        0.66248       -0.00137
C         -0.87198        1.46535        0.00193
C         -0.66304        2.90369        0.00485
N         -0.48919        4.03281       -0.02210
C         -2.24796        0.98687        0.00413
N         -3.08373        1.72138        0.00937
H         -2.96258        2.73348        0.02550
H         -4.08955        1.55454        0.02810
H         -2.56560       -2.51215       -0.00895
