33
Coordinates from ORCA-job ./opt_b97-3c_parallel
N         -6.17459       -0.85939        0.42970
C         -5.07194       -0.58562        0.29979
C         -3.67039       -0.25444        0.13185
C         -3.26226        1.07399        0.24557
C         -1.98153        1.58578        0.04445
C         -0.71955        0.96423       -0.09559
C          0.39767        1.84485       -0.18734
C          0.27376        3.28126       -0.35844
N          0.17629        4.40976       -0.51070
C          1.70098        1.35306       -0.13511
C          1.93111        0.01872        0.06149
C          3.31806       -0.34725        0.21842
C          4.27110       -1.41344        0.14333
N          5.04778       -2.08175        0.64998
C          3.74099        1.02376        0.02640
C          2.88270        2.17092       -0.13949
H          3.07896        3.04158       -0.75899
N          5.03725        1.46201        0.08674
H          5.26491        2.40382       -0.21225
H          5.78299        0.77247        0.10910
C          0.86085       -0.87784        0.11237
C          1.18672       -2.20112        0.61357
N          1.44816       -3.23319        1.02978
C         -0.48161       -0.44097       -0.10409
C         -1.48746       -1.41343       -0.37959
C         -1.14280       -2.67142       -1.01491
N         -0.89455       -3.65743       -1.53535
C         -2.87203       -1.31747       -0.25345
H         -3.42516       -2.23679       -0.45874
H         -1.99459        2.66862        0.10258
N         -4.21465        2.02306        0.52867
H         -5.18030        1.74706        0.67668
H         -3.95950        3.00183        0.60439
