27
Coordinates from ORCA-job ./opt_b97-3c_parallel
N         -4.05949       -3.33800        0.33228
C         -3.50468       -2.34447        0.22849
C         -2.80040       -1.09395        0.11645
C         -3.38427        0.15954        0.04366
C         -2.36933        1.10370       -0.05981
C         -2.63496        2.51769       -0.15198
N         -2.86690        3.63363       -0.23149
C         -1.13906        0.42813       -0.03506
C         -1.42821       -0.91362        0.05877
C         -0.43064       -1.86507        0.02428
C          0.89997       -1.45259       -0.04501
N          1.79370       -2.43647       -0.17604
C          2.80481       -2.82297       -0.30172
C          3.87982       -1.89764       -0.12828
C          3.77999       -0.52776        0.11282
C          2.63548        0.29621        0.16801
C          3.01602        1.61828        0.62209
N          3.34115        2.64507        1.00671
C          1.26131       -0.07908       -0.00280
C          0.19296        0.87509       -0.09809
C          0.39850        2.27049       -0.42416
N          0.55319        3.36675       -0.70817
H          4.74292       -0.04639        0.28301
H          4.85448       -2.37932       -0.14819
H          2.73237       -3.65052       -0.99744
H         -0.68246       -2.92464        0.02898
H         -4.45175        0.36815        0.06072
