26
Coordinates from ORCA-job ./opt_b97-3c_parallel
N         -5.30813       -0.24028        0.01861
C         -4.17255       -0.10454       -0.00487
C         -2.74051        0.04026       -0.00660
C         -1.99416       -1.18876       -0.00422
C         -0.56871       -1.39995       -0.00305
C         -0.24385       -2.80983        0.00201
N         -0.02815       -3.93249        0.00617
C          0.39647       -0.38752       -0.00564
N          1.45198       -0.78629       -0.00056
C          2.65677       -0.17908        0.00187
C          2.66123        1.17654       -0.00454
C          4.00518        1.76882       -0.00040
C          4.15954        0.39496        0.00681
N          3.88986       -0.69666        0.01051
H          5.25137        0.24260        0.01347
H          4.86198        2.43797        0.00127
C          1.43773        1.83276       -0.01458
C          0.22543        1.00720       -0.01280
C         -0.89600        1.80694       -0.01723
C         -2.26609        1.34534       -0.01148
N         -2.84798        2.29328       -0.01194
H         -3.85345        2.12843        0.00414
H         -2.71914        3.29928        0.07817
H         -0.71359        2.88569       -0.02410
H          1.44807        2.92037       -0.02215
H         -2.60432       -2.08997       -0.00106
