29
Coordinates from ORCA-job ./opt_b97-3c_parallel
N         -6.02627       -0.64364       -0.00204
C         -4.88921       -0.52678       -0.00098
C         -3.44577       -0.39166       -0.00011
C         -2.99662        0.92428       -0.00065
C         -1.70388        1.45521       -0.00013
C         -1.73545        2.90441       -0.00071
N         -1.77842        4.04679       -0.00123
C         -0.46092        0.77589        0.00125
C         -0.28390       -0.63890        0.00213
C         -1.27336       -1.62401        0.00173
C         -2.66187       -1.54906        0.00104
N         -3.28729       -2.77224        0.00128
H         -2.74037       -3.62647        0.00145
H         -4.30063       -2.82766       -0.00010
H         -0.89038       -2.64587        0.00268
N          0.95692       -1.19960        0.00297
C          2.01915       -0.38610        0.00331
C          1.96931        0.96179        0.00277
N          3.19283        1.53254        0.00314
C          3.88447        0.63970        0.00361
N          5.22715        0.88811        0.00357
H          5.57685        1.83955        0.00388
H          5.89105        0.12089        0.00429
C          3.38775       -0.72292        0.00392
C          3.97738       -2.02450        0.00416
N          4.70638       -2.90505        0.00394
C          0.72135        1.56662        0.00182
H          0.71191        2.65279        0.00144
H         -3.79843        1.66558       -0.00156
