28
Coordinates from ORCA-job ./opt_b97-3c_parallel
N          0.48031        4.14258        0.05478
C          0.67865        3.01617        0.06475
C          0.95287        1.57897        0.06345
C          2.32182        1.24992        0.07880
C          2.90086       -0.00814        0.06925
C          2.32227       -1.26568        0.01807
N          3.26308       -2.27158        0.01720
H          2.96609       -3.22412       -0.17000
H          4.23993       -2.03708       -0.12055
C          0.95439       -1.59423       -0.03255
C          0.68133       -3.03026       -0.09584
N          0.48640       -4.15654       -0.14507
C         -0.16856       -0.72390       -0.01807
N         -1.37615       -1.37230       -0.06798
C         -2.52943       -0.69038       -0.03936
C         -2.52986        0.67326        0.04890
N         -1.37748        1.35575        0.08193
C         -0.16905        0.70766        0.04220
C         -3.78627        1.35517        0.10647
C         -4.24493       -0.00916        0.00312
C         -3.78535       -1.37343       -0.09725
H         -4.07149       -2.19104        0.55616
H         -5.33253        0.00925        0.02015
H         -4.10007        2.16363       -0.54556
H          3.99173       -0.00858        0.10079
N          3.26171        2.25583        0.11866
H          4.23937        2.02934       -0.02582
H          2.96368        3.21667       -0.01817
