29
Coordinates from ORCA-job ./opt_b97-3c_parallel
N          5.62445       -0.08398       -0.33816
C          4.48397       -0.04585       -0.27119
C          3.04572        0.01708       -0.17349
C          2.37078       -1.24226       -0.11912
N          1.28499       -1.27660       -0.16213
C          0.06849       -0.71714       -0.15084
C         -1.03211       -1.59730       -0.20874
C         -0.87217       -3.03005       -0.34524
N         -0.75984       -4.16273       -0.45499
C         -2.30609       -1.06992       -0.10666
C         -2.49923        0.27233        0.08196
C         -3.86751        0.49411        0.21245
C         -4.50719       -0.73315        0.08748
C         -3.53938       -1.70918       -0.10908
H         -3.72015       -2.77540       -0.22698
H         -5.57974       -0.90112        0.14331
H         -4.36020        1.44978        0.37797
C         -1.43580        1.17498        0.13604
C         -1.81622        2.52026        0.51293
N         -2.14493        3.56849        0.82945
C         -0.09674        0.69658       -0.05356
C          1.03448        1.57853       -0.17282
C          0.87957        2.99887       -0.40465
N          0.79438        4.12062       -0.60983
C          2.40991        1.25891       -0.22842
H          3.09903        2.09863       -0.33303
N          2.70930       -2.26903        0.71512
H          3.68166       -2.38498        0.97937
H          2.12332       -3.09667        0.73409
