28
Coordinates from ORCA-job ./opt_b97-3c_parallel
N         -5.84706       -0.10402       -0.00923
C         -4.70879       -0.19932       -0.00020
C         -3.28344        0.00354        0.00060
C         -2.71509       -1.31779        0.00070
C         -1.29963       -1.61038        0.00109
C         -1.29684       -3.05262        0.00033
N         -0.73090       -4.04596        0.00150
C         -0.18554       -0.77759        0.00207
N          1.00128       -1.51516        0.00222
C          2.24568       -0.92660        0.00346
N          3.55703       -1.35624        0.00384
C          4.40811       -0.25360        0.00537
N          5.51085       -0.32513        0.00585
H          6.14932        0.47248        0.00684
H          6.11226       -1.15119        0.00482
N          3.63421        0.89818        0.00605
C          2.32594        0.47497        0.00487
C          1.17911        1.33730        0.00491
C          1.40171        2.75424        0.00668
N          1.62327        3.87412        0.00838
C         -0.12811        0.67782        0.00328
C         -1.25754        1.58462        0.00266
C         -2.65720        1.23436        0.00117
N         -3.22913        2.18340        0.00095
H         -3.10373        3.19510       -0.00006
H         -4.23865        2.03107       -0.00149
H         -1.03977        2.65236        0.00332
H         -3.41975       -2.15590        0.00012
