35
Coordinates from ORCA-job ./opt_b97-3c_parallel
N         -5.89895       -0.40155        0.86683
C         -4.80173       -0.26899        0.57384
C         -3.39595       -0.10393        0.21640
C         -2.83505       -1.10746       -0.58910
N         -3.70959       -1.97730       -1.21384
H         -3.35201       -2.83614       -1.61975
H         -4.69972       -1.92597       -0.99548
C         -1.46232       -1.39774       -0.67300
C         -1.08483       -2.50749       -1.54014
N         -0.78640       -3.36579       -2.23374
C         -0.40650       -0.65852       -0.09630
C         -0.38518        0.75181       -0.20716
C         -1.48763        1.55269        0.20773
C         -1.23503        2.95435        0.52427
N         -1.05699        4.05270        0.78782
C         -2.75994        1.08593        0.62542
N         -3.51905        1.93348        1.41521
H         -4.49345        1.71337        1.59499
H         -3.19701        2.88047        1.58874
C          0.87152        1.34863       -0.52113
C          0.97507        2.56431       -1.30377
N          1.04701        3.50935       -1.94289
C          2.04656        0.65200       -0.21939
C          1.99816       -0.64391        0.24773
C          3.30436       -1.04910        0.54241
C          3.77412       -2.30934        1.06054
N          4.16340       -3.29919        1.47786
C          4.15145        0.00521        0.24391
C          3.38658        1.05467       -0.23832
C          3.94533        2.34220       -0.56646
N          4.40357        3.35922       -0.81354
H          5.23101        0.01307        0.37968
C          0.78661       -1.33729        0.27117
C          0.74225       -2.69419        0.77935
N          0.68438       -3.76271        1.18025
