29
Coordinates from ORCA-job ./opt_b97-3c_parallel
N          5.87460       -0.19941       -0.00037
C          4.73342       -0.14096       -0.00023
C          3.29828       -0.02310       -0.00037
C          2.70770       -1.27553       -0.00184
C          1.28126       -1.59511       -0.00064
C          1.32857       -3.03443       -0.00166
N          1.05126       -4.14325       -0.00116
C          0.14990       -0.77252        0.00112
C         -1.12809       -1.48994        0.00235
C         -2.35059       -0.85669        0.00284
C         -2.37301        0.54161        0.00257
N         -3.63988        0.95063        0.00272
C         -4.30615       -0.26709        0.00296
N         -5.41013       -0.25263        0.00296
H         -5.99820       -1.08575        0.00162
H         -6.04655        0.54436        0.00190
N         -3.55217       -1.33698        0.00320
C         -1.15950        1.30790        0.00275
C         -1.46608        2.72254        0.00303
N         -1.69371        3.84175        0.00286
C          0.15407        0.68553        0.00111
C          1.27436        1.46295       -0.00230
C          2.61920        1.24413        0.00107
N          3.21156        2.18284        0.00297
H          2.93523        3.16315        0.00148
H          4.23090        2.16989        0.00080
H          1.02207        2.52523       -0.00867
H         -1.13228       -2.57391        0.00256
H          3.41146       -2.11390       -0.00300
