25
Coordinates from ORCA-job ./opt_b97-3c_parallel
N         -1.21299       -3.52760        0.00501
C         -0.96298       -2.41255        0.02590
C         -0.68210       -0.99530        0.05095
C         -1.72525       -0.06762        0.05719
N         -3.03096       -0.33821        0.03802
C         -3.55490        0.90366        0.04945
N         -4.64977        0.74412        0.02103
H         -5.34029        1.46425        0.23463
H         -5.18537       -0.08180       -0.24841
C         -2.76086        2.02908        0.07822
C         -1.48169        1.28552        0.07824
N         -0.22643        1.78336        0.09132
C          0.80773        0.90487        0.08000
C          2.15828        1.53660        0.08054
C          3.35755        0.88789        0.04409
N          3.86962       -0.35202        0.02788
C          3.06293       -1.42884        0.04450
N          1.68702       -1.30608        0.05191
C          0.62492       -0.48798        0.06127
H          3.74551       -2.29232        0.03482
N          4.37745        1.30181       -0.01462
H          5.32694        0.96182       -0.16012
H          4.35501        2.25781       -0.36329
H          2.13023        2.62480        0.10762
H         -3.18593        3.03091        0.08876
