30
Coordinates from ORCA-job ./opt_b97-3c_parallel
N         -4.39796       -2.12756       -0.08796
C         -3.49765       -1.42359       -0.06551
C         -2.34977       -0.52046       -0.02252
C         -2.64990        0.83342       -0.23604
C         -1.79766        1.91435       -0.07914
C         -0.42876        1.96627        0.14237
N          0.00253        3.25708        0.33129
H          0.92181        3.39632        0.73600
H         -0.69508        3.96942        0.51634
C          0.50518        0.90804        0.12279
C          1.86766        1.30788        0.09076
C          2.88294        0.36981        0.04860
C          2.61084       -0.93470        0.04069
C          3.83067       -1.66351       -0.04946
N          4.14128       -0.57233       -0.04982
C          4.29265        0.55189       -0.03454
H          4.85201        1.47212       -0.15263
H          3.98437       -2.69235       -0.35264
C          1.30637       -1.39347        0.08820
C          0.20619       -0.49161        0.13873
C         -1.07907       -1.09696        0.21594
N         -1.10556       -2.43916        0.54332
H         -2.00029       -2.85421        0.78248
H         -0.28179       -2.83841        0.97820
H          1.19167       -2.47256        0.04502
H          2.18028        2.34704        0.06057
H         -2.28728        2.88710       -0.15046
N         -3.93927        1.20514       -0.54327
H         -4.59198        0.48241       -0.82895
H         -4.10296        2.14645       -0.88191
