28
Coordinates from ORCA-job ./opt_b97-3c_parallel
N         -4.22062       -2.63107       -0.34057
C         -3.54067       -1.71915       -0.23261
C         -2.70174       -0.55399       -0.10514
C         -3.20431        0.73479       -0.03096
C         -2.13779        1.61335        0.07337
C         -2.30462        3.03912        0.19965
N         -2.45596        4.16634        0.30969
C         -0.95813        0.86252        0.05842
C         -1.30710       -0.47583       -0.03889
C         -0.33091       -1.47946       -0.04394
C         -0.68769       -2.87974       -0.12343
N         -0.95293       -3.98968       -0.18878
C          1.02214       -1.10372        0.04589
N          1.98683       -2.05645        0.10227
C          3.06924       -2.26666        0.18702
C          4.00182       -1.17490        0.30872
C          3.72163        0.21952        0.08127
N          2.69205        0.61930        0.10706
C          1.38163        0.26554        0.09354
C          0.38374        1.25870        0.11533
C          0.75718        2.65516        0.17768
N          1.06660        3.75531        0.22265
N          4.59550        1.04842       -0.55688
H          5.47381        0.67659       -0.90130
H          4.25658        1.91302       -0.96368
H          4.91867       -1.48087        0.80652
H          2.92401       -3.10608        0.85675
H         -4.25682        1.00998       -0.04776
