31
Coordinates from ORCA-job ./opt_b97-3c_parallel
N          6.04549        0.62173        0.01059
C          4.90540        0.52296        0.01797
C          3.46236        0.38301        0.01900
C          3.02132       -0.93559        0.01208
C          1.73192       -1.47445       -0.00373
C          1.77624       -2.92339       -0.00253
N          1.82795       -4.06565        0.00081
C          0.48411       -0.80256       -0.02044
C         -0.68901       -1.59813       -0.07133
C         -1.96196       -1.04280       -0.09258
C         -2.12221        0.31601       -0.04244
C         -3.46721        0.81489       -0.04961
C         -4.05755        2.11492       -0.03091
N         -4.57872        3.13219       -0.01796
C         -3.87348       -0.57445       -0.05114
N         -5.21831       -0.79327        0.08155
H         -5.85276       -0.00410        0.01207
H         -5.58952       -1.72294       -0.08007
C         -3.15869       -1.82320       -0.17988
H         -3.35120       -2.74116        0.36658
C         -1.00099        1.13259        0.00473
C          0.30356        0.60408        0.00526
C          1.28315        1.60410        0.02890
C          2.67294        1.53617        0.02889
N          3.29605        2.76061        0.04837
H          2.74963        3.61148       -0.02661
H          4.30715        2.81399       -0.02592
H          0.90308        2.62519        0.04212
H         -1.16072        2.20860        0.03479
H         -0.65495       -2.68292       -0.10452
H          3.82757       -1.67203        0.01601
