22
Coordinates from ORCA-job ./opt_b97-3c_parallel
N         -0.38573       -3.94020       -0.09951
C         -0.44427       -2.80697        0.03827
C         -0.28487       -1.37314        0.00899
C         -1.49044       -0.69312        0.01806
N         -2.75083       -1.22614        0.04870
C         -3.54889       -0.09526        0.04148
N         -2.88545        1.02950        0.01361
C         -1.62433        0.71474       -0.00446
C         -0.43778        1.42598       -0.04174
C         -0.66378        2.84469       -0.06028
N         -0.71201        3.94089        0.26128
C          0.80414        0.80742       -0.05962
N          1.92765        1.64488       -0.11464
C          3.18329        1.06575       -0.13913
C          3.76956       -0.16517       -0.12275
C          2.94961       -1.24973       -0.00535
N          1.84344       -1.25183       -0.02954
C          0.90514       -0.65188       -0.02716
H          3.47051       -2.02641        0.57494
H          4.84805       -0.26658       -0.02779
H          3.73936        2.01349       -0.19445
H         -4.64668       -0.01811        0.05467
