27
Coordinates from ORCA-job ./opt_b97-3c_parallel
N         -4.20924       -3.27786       -0.30764
C         -3.63766       -2.29331       -0.20737
C         -2.90656       -1.05862       -0.09536
C         -3.46377        0.20698       -0.01768
C         -2.42861        1.12969        0.07735
C         -2.65982        2.54922        0.17246
N         -2.86430        3.67079        0.25179
C         -1.21400        0.42809        0.04829
C         -1.52929       -0.90898       -0.04776
C         -0.55330       -1.88659       -0.05149
C          0.79085       -1.50930        0.01105
C          1.68494       -2.58835        0.05585
C          3.10746       -2.49320        0.23346
N          3.88884       -1.72963        0.09444
C          3.64568       -0.68524       -0.16119
C          2.53328        0.22661       -0.07175
C          3.12553        1.48506       -0.46615
N          3.60718        2.46744       -0.79847
C          1.16155       -0.12964        0.02142
C          0.12496        0.84959        0.09844
C          0.38825        2.25341        0.32424
N          0.58809        3.36081        0.52566
H          4.71164       -0.47359       -0.15394
H          3.75071       -3.12120        0.84072
H          1.34022       -3.62034        0.04283
H         -0.83817       -2.93663       -0.08986
H         -4.52639        0.43798       -0.02833
