30
Coordinates from ORCA-job ./opt_b97-3c_parallel
N         -5.57071       -0.84080       -0.01434
C         -4.44649       -0.63400       -0.00213
C         -3.01741       -0.36886       -0.00071
C         -2.26223       -1.52822       -0.00141
C         -0.88674       -1.72389        0.00152
C         -0.59190       -3.14619        0.00164
N         -0.37955       -4.26944        0.00229
C          0.15589       -0.76330        0.00464
C          1.47545       -1.30512        0.00744
C          2.60074       -0.50515        0.01005
C          2.43886        0.82390        0.00945
C          3.74756        1.33647        0.01263
C          4.49305        0.09818        0.01459
N          5.85626        0.11211        0.01839
H          6.36467        0.98908        0.01812
H          6.37726       -0.75762        0.01824
N          3.90323       -0.86520        0.01309
H          4.11862        2.35623        0.01385
C          1.20529        1.43335        0.00708
C          0.00247        0.66654        0.00484
C         -1.21805        1.41472        0.00370
C         -1.10959        2.87274        0.00449
N         -1.04143        4.01439        0.00487
C         -2.56088        0.95657        0.00222
N         -3.56668        1.90948        0.00476
H         -4.54100        1.62604       -0.01160
H         -3.33664        2.89792       -0.00773
H          1.24797        2.51710        0.00729
H          1.68695       -2.36955        0.00781
H         -2.85811       -2.44458       -0.00382
