31
Coordinates from ORCA-job ./opt_b97-3c_parallel
N          5.79680       -0.01262        0.38852
C          4.66809        0.12037        0.26354
C          3.23476        0.27224        0.10711
C          2.68682        1.55512        0.09975
C          1.34818        1.88811       -0.06801
C          0.19035        1.09979       -0.11381
C         -0.96595        1.89383       -0.18366
C         -2.23021        1.34041       -0.15882
C         -2.37544       -0.01049        0.01008
C         -3.73863       -0.45585        0.13081
C         -4.16974        0.91174       -0.01848
N         -5.52873        1.00836        0.07892
H         -6.08568        0.16068        0.05299
H         -5.97957        1.88735       -0.15071
C         -3.42320        2.13246       -0.19570
H         -3.65407        2.90703       -0.92014
H         -4.10958       -1.16434        0.86569
C         -1.25174       -0.84379        0.08458
C         -1.54480       -2.19542        0.52446
N         -1.79510       -3.24807        0.89416
C          0.07327       -0.31788       -0.08124
C          1.18808       -1.19098       -0.24733
C          1.01992       -2.54956       -0.72510
N          0.91809       -3.61785       -1.12080
C          2.55403       -0.91377       -0.12967
H          3.21256       -1.77965       -0.23205
H         -0.89784        2.97846       -0.24641
H          1.18103        2.96434       -0.10195
N          3.52712        2.63286        0.23779
H          3.15910        3.57741        0.21641
H          4.52495        2.48813        0.35585
