29
Coordinates from ORCA-job ./opt_b97-3c_parallel
N          5.66301        1.34038        1.05282
C          4.62811        0.98264        0.72674
C          3.31495        0.53347        0.33650
C          3.09816       -0.83286        0.33263
C          1.96877       -1.54610       -0.06805
C          2.25595       -2.96626       -0.13884
N          2.49680       -4.08010       -0.19904
C          0.64062       -1.06623       -0.21944
C         -0.36120       -2.05246       -0.38764
C         -1.69528       -1.72564       -0.27830
C         -2.09981       -0.45070        0.01307
C         -3.48629       -0.49627        0.20556
C         -4.39028        0.56154        0.58518
N         -5.11643        1.38573        0.90044
C         -3.90272       -1.80630       -0.00452
C         -2.78902       -2.57305       -0.30994
H         -2.77507       -3.64403       -0.49905
H         -4.92356       -2.17223        0.07841
C         -1.16167        0.58484        0.06623
C         -1.62002        1.87972        0.52988
N         -1.96301        2.90397        0.90421
C          0.22235        0.30051       -0.16829
C          1.09742        1.38330       -0.44898
C          0.62358        2.52922       -1.20165
N          0.26528        3.42368       -1.81662
C          2.45902        1.48729       -0.18231
H          2.91084        2.46455       -0.36220
H         -0.14470       -3.10567       -0.54072
H          3.96537       -1.42893        0.62276
