25
Coordinates from ORCA-job ./opt_b97-3c_parallel
N         -5.46172       -0.41632        0.00752
C         -4.32655       -0.28941        0.00527
C         -2.90826       -0.09065        0.00378
C         -2.24997       -1.29778        0.00352
C         -0.82159       -1.50033        0.00287
C         -0.70977       -2.93778        0.00328
N         -0.22320       -3.97185       -0.00144
C          0.22074       -0.58353        0.00205
N          1.46050       -1.23655        0.00191
C          2.63455       -0.52236        0.00131
C          2.62538        0.89463        0.00066
C          4.10789        0.86789        0.00105
C          4.86947       -0.26105        0.00155
N          3.84253       -1.17932        0.00180
H          5.96656       -0.35391        0.00172
H          4.57387        1.85171        0.00092
C          1.40543        1.63464        0.00038
C          0.15365        0.87952        0.00149
C         -1.04624        1.71396        0.00134
C         -0.96749        3.14726        0.00032
N         -0.87008        4.28549       -0.00018
C         -2.40520        1.24676        0.00277
H         -3.17291        2.01876        0.00313
H          1.43912        2.71712       -0.00004
H         -2.88636       -2.18807        0.00428
