32
Coordinates from ORCA-job ./opt_b97-3c_parallel
N         -4.44112       -2.03193        0.23572
C         -3.54576       -1.32655        0.14377
C         -2.40562       -0.42064        0.04367
C         -2.69892        0.87313       -0.40706
C         -1.89278        1.98768       -0.24537
C         -0.56567        2.08412        0.15358
N         -0.19264        3.38488        0.38744
H          0.67195        3.54569        0.89220
H         -0.92697        4.07535        0.50179
C          0.39972        1.05412        0.17453
C          1.74709        1.49370        0.20180
C          2.78719        0.58753        0.12206
C          2.55236       -0.71741       -0.03020
C          3.80265       -1.37958       -0.21751
N          4.08350       -0.28932       -0.09589
C          4.18833        0.82966        0.04379
H          4.72113        1.76950        0.12582
H          3.99664       -2.42446       -0.42704
C          1.25791       -1.22891       -0.03787
N          1.15266       -2.56058       -0.35905
H          1.97435       -3.03848       -0.71046
H          0.24369       -2.91060       -0.64264
C          0.14065       -0.35149        0.14578
C         -1.13542       -0.93428        0.38443
N         -1.15169       -2.14581        1.04584
H         -0.27546       -2.61958        1.24036
H         -2.02389       -2.65159        1.15877
H          2.02820        2.54192        0.23290
H         -2.38870        2.93970       -0.43788
N         -3.95564        1.16252       -0.88638
H         -4.67392        0.44555       -0.87828
H         -4.22052        2.12466       -1.06439
