28
Coordinates from ORCA-job ./opt_b97-3c_parallel
N         -4.61175       -2.84451       -0.00125
C         -3.92855       -1.92874       -0.00058
C         -3.08044       -0.76564       -0.00001
C         -1.71344       -0.74163        0.00010
C         -1.32251        0.56108        0.00036
N         -0.02646        0.91002        0.00013
C          0.96572       -0.03819       -0.00020
C          2.29213        0.47636       -0.00160
C          2.42821        1.93149       -0.00183
N          2.55161        3.06869       -0.00134
C          3.51770       -0.22946       -0.00300
C          3.72436       -1.60421       -0.00105
C          2.79699       -2.62605        0.00076
C          1.41811       -2.53916        0.00057
C          0.59050       -1.41566        0.00006
C         -0.77588       -1.75663        0.00004
H         -1.10881       -2.79260       -0.00008
H          0.92621       -3.51018        0.00110
H          3.20697       -3.63362        0.00152
H          4.76018       -1.94025       -0.00156
N          4.70136        0.47222       -0.00813
H          4.69044        1.48738        0.00651
H          5.58857       -0.01764        0.00862
C         -2.40791        1.52134        0.00037
C         -2.54966        2.94200       -0.00057
N         -2.52665        4.08464        0.00107
C         -3.50028        0.55597        0.00011
H         -4.56137        0.79487       -0.00026
