23
Coordinates from ORCA-job ./opt_b97-3c_parallel
N         -0.86156       -3.45359        0.01010
C         -0.73435       -2.31668       -0.00072
C         -0.57205       -0.87848        0.00005
C         -1.70746       -0.06465       -0.00003
N         -3.01756       -0.40756        0.00019
C         -3.62036        0.54824        0.00062
C         -2.87249        1.78468        0.00096
C         -1.55945        1.28233        0.00034
C         -0.33309        1.92014        0.00067
C          0.82718        1.13481        0.00125
C          2.03736        1.85143        0.00030
C          3.35296        1.37301       -0.00013
C          3.76954        0.04316        0.00009
C          2.89922       -1.09371        0.00064
N          1.80547       -1.05398        0.00022
C          0.70841       -0.27735        0.00026
H          3.16149       -2.14489        0.00038
H          4.83061       -0.19426       -0.00013
H          4.13907        2.12428       -0.00053
H          1.95664        2.93633        0.00012
H         -0.28561        3.00649        0.00122
H         -3.24758        2.80285        0.00135
H         -4.69341        0.39704        0.00064
