25
Coordinates from ORCA-job ./opt_b97-3c_parallel
N         -0.46016       -3.42443       -0.02761
C         -0.54596       -2.28449       -0.01059
C         -0.64869       -0.84095       -0.00313
C         -1.91300       -0.24892        0.00048
C         -2.01401        1.10283        0.00781
C         -3.39813        1.35381        0.00886
C         -3.90421        0.00008        0.00039
N         -3.13648       -0.82846       -0.00318
H         -4.92919       -0.35134       -0.00362
H         -3.95671        2.28417        0.01382
C         -0.92336        1.95370        0.00792
C          0.36118        1.39320        0.00143
C          1.42278        2.31643       -0.00749
C          2.80378        2.08443       -0.02420
C          3.45653        0.85338       -0.02533
C          2.79804       -0.41707        0.00475
N          1.71833       -0.58768        0.00061
C          0.50069       -0.01806       -0.00073
N          3.47076       -1.59984        0.08803
H          2.96570       -2.47557        0.00980
H          4.48055       -1.61655       -0.00101
H          4.54348        0.82256       -0.04190
H          3.44103        2.96500       -0.03891
H          1.14742        3.36894       -0.00706
H         -1.07509        3.03087        0.00998
