28
Coordinates from ORCA-job ./opt_b97-3c_parallel
N         -5.68621        0.01242       -0.00002
C         -4.54477       -0.05060       -0.00332
C         -3.09811       -0.14475       -0.00401
C         -2.44676        1.08357        0.00005
C         -1.08661        1.40335       -0.00020
C         -0.88798        2.83975        0.00212
N         -0.74903        3.97407        0.00376
C          0.03306        0.53547       -0.00096
C         -0.01473       -0.89099       -0.00292
C         -1.14864       -1.70615       -0.00681
C         -2.50736       -1.41185       -0.00904
N         -3.31952       -2.51994       -0.01891
H         -4.32842       -2.41252        0.00880
H         -2.91584       -3.44984        0.00950
H         -0.93244       -2.77583       -0.00943
N          1.12212       -1.64262       -0.00251
C          2.29280       -0.99871       -0.00072
C          2.45936        0.33733        0.00028
N          3.76327        0.69456        0.00100
C          4.34427       -0.27571        0.00035
N          5.70795       -0.29166        0.00058
H          6.23113        0.57688        0.00027
H          6.21463       -1.16974       -0.00074
C          3.59827       -1.51529       -0.00079
H          3.96634       -2.53570       -0.00145
C          1.32434        1.13206        0.00024
H          1.48750        2.20553        0.00129
H         -3.12121        1.94234        0.00256
