33
Coordinates from ORCA-job ./opt_b97-3c_parallel
N          6.19959        0.73300       -0.34598
C          5.06481        0.62879       -0.25336
C          3.62678        0.48595       -0.12381
C          2.81735        1.61398       -0.24021
C          1.43764        1.68212       -0.06918
C          0.43689        0.69188        0.06238
C         -0.89934        1.18030        0.16778
C         -1.21783        2.58421        0.35168
N         -1.45610        3.69080        0.50978
C         -1.98773        0.30846        0.13324
C         -1.78480       -1.02879       -0.06947
C         -2.99207       -1.80130       -0.18793
C         -3.81995       -0.62276       -0.10819
N         -5.11812       -0.97871       -0.36219
H         -5.85343       -0.30531       -0.16742
H         -5.36958       -1.96022       -0.40475
C         -3.36982        0.71663        0.20474
C         -4.30954        1.71701        0.61134
N         -5.02004        2.60457        0.49455
H         -3.16308       -2.66264       -0.82765
C         -0.49227       -1.55267       -0.13471
C         -0.41909       -2.92593       -0.60482
N         -0.37858       -4.00022       -0.99562
C          0.65253       -0.71880        0.06569
C          1.91784       -1.32274        0.32529
C          2.00094       -2.63997        0.92681
N          2.08860       -3.66920        1.41926
C          3.20212       -0.78492        0.22388
H          4.01966       -1.48121        0.42543
H          1.10853        2.71347       -0.13027
N          3.41811        2.82478       -0.49012
H          4.42303        2.87808       -0.62349
H          2.85947        3.66716       -0.57515
