24
Coordinates from ORCA-job ./opt_b97-3c_parallel
N          1.22258        3.61052        0.35287
C          0.95404        2.50805        0.21999
C          0.64748        1.10471        0.05677
C          1.67594        0.15513        0.01921
N          2.97697        0.46211        0.11724
C          3.32873       -0.87270       -0.00246
N          4.42055       -1.04782        0.02890
H          4.86779       -1.90505       -0.29634
H          5.17598       -0.42651        0.31886
N          2.48275       -1.95931       -0.15436
C          1.38837       -1.19255       -0.13191
N          0.11919       -1.64152       -0.24107
C         -0.88184       -0.73375       -0.21030
N         -2.07294       -1.26984       -0.30161
C         -3.31937       -0.92062       -0.21474
N         -3.66508       -1.70653        0.47496
H         -3.61137       -2.71487        0.60458
H         -4.60448       -1.42467        0.74954
C         -3.82981        0.33135       -0.40813
C         -3.08002        1.45051       -0.18596
N         -1.70610        1.50896       -0.06310
C         -0.67207        0.64865       -0.07040
H         -3.64736        2.39187       -0.13088
H         -4.82216        0.43790       -0.84164
