33
Coordinates from ORCA-job ./opt_b97-3c_parallel
N         -5.56360       -0.97533       -0.37182
C         -4.57554       -0.95720        0.20427
C         -3.25026       -0.41959        0.17770
C         -2.27056       -1.46289        0.06519
C         -0.97529       -0.83667        0.05392
C         -1.16481        0.57759        0.11071
C         -2.57890        0.85059        0.13228
N         -3.40008        1.94283        0.09987
H         -4.38999        1.79586       -0.06789
H         -3.00299        2.83801       -0.16244
C          0.03710        1.37273        0.06332
N         -0.33308        2.69081        0.14556
H          0.37955        3.37145        0.38241
H         -1.28341        2.89423        0.43513
C          1.36348        0.89503       -0.00741
C          2.34030        1.89607       -0.16454
C          3.71474        1.81201       -0.30394
C          4.51510        0.69396       -0.22448
C          4.12117       -0.60421        0.03023
C          2.84285       -1.14588        0.16868
N          2.93048       -2.47081        0.51197
H          2.10384       -2.90635        0.90757
H          3.83048       -2.82576        0.81471
C          1.57393       -0.50488        0.06537
C          0.39479       -1.29675        0.05024
N          0.29104       -2.64699       -0.17327
H          1.11591       -3.13014       -0.51401
H         -0.61205       -3.02459       -0.43485
H          4.95547       -1.29888        0.12210
H          5.58430        0.85958       -0.33473
H          4.23330        2.75270       -0.47539
H          2.00620        2.92529       -0.24410
H         -2.43087       -2.32855       -0.57418
