28
Coordinates from ORCA-job ./opt_b97-3c_parallel
N          4.29859        2.27268        0.09497
C          3.50071        1.45583        0.03951
C          2.48080        0.42610       -0.01331
C          2.89588       -0.91161       -0.06345
C          2.08070       -2.03390       -0.08070
C          0.69812       -2.12322       -0.04863
C         -0.27801       -1.12509       -0.02715
C         -1.58514       -1.64341       -0.00298
C         -2.66777       -0.78123        0.00298
C         -2.49533        0.54821       -0.02936
C         -3.78290        1.16313       -0.03929
N         -4.00892        0.05299       -0.00938
C         -4.06060       -1.07850        0.01847
H         -4.55363       -2.00366        0.29152
H         -4.03498        2.21478        0.02069
C         -1.22618        1.12287       -0.05533
N         -1.16765        2.49240       -0.11581
H         -2.02097        2.99659       -0.32801
H         -0.29103        2.92661       -0.38021
C         -0.07728        0.28172       -0.03557
C          1.17470        0.92536       -0.01290
H          1.15304        2.01064        0.02013
H         -1.77123       -2.71522        0.01001
H          0.33919       -3.15067       -0.05239
H          2.58944       -2.99607       -0.11395
N          4.23894       -1.19661       -0.09528
H          4.90534       -0.44935        0.07151
H          4.54621       -2.15506        0.02633
