29
Coordinates from ORCA-job ./opt_b97-3c_parallel
N          3.21384        3.64618       -0.14776
C          2.61614        2.67305       -0.09627
C          1.84154        1.44522       -0.03786
C          0.47533        1.67935        0.04101
C         -0.60995        0.80621        0.05920
C         -1.84036        1.49617        0.06385
C         -3.03142        0.79301        0.04870
C         -3.03497       -0.54244        0.02622
C         -4.38296       -0.99874       -0.01633
N         -4.45773        0.13335        0.00204
C         -4.37434        1.26483        0.02489
H         -4.76034        2.22894        0.33340
H         -4.79219       -1.85351       -0.54151
C         -1.85363       -1.26871        0.03764
C         -0.58898       -0.61545        0.06879
C          0.56698       -1.44125        0.11305
N          0.33100       -2.79550        0.25792
H         -0.58056       -3.09511        0.58246
H          1.11791       -3.40283        0.46190
C          1.93863       -1.07636        0.03261
C          2.90120       -2.17852        0.05091
N          3.65208       -3.04116        0.07718
C          2.51114        0.21233       -0.07061
N          3.88748        0.28911       -0.19228
H          4.41028       -0.55758       -0.39126
H          4.30890        1.17824       -0.44072
H         -1.97035       -2.34737        0.00368
H         -1.88673        2.58327        0.06630
H          0.21277        2.73755        0.05915
