26
Coordinates from ORCA-job ./opt_b97-3c_parallel
N         -1.43217       -3.62959        0.21004
C         -1.74485       -2.76111       -0.46586
C         -1.66376       -1.34667       -0.22636
C         -3.03585       -0.93611       -0.07759
C         -3.43605        0.24511        0.44095
C         -3.04625        1.43081       -0.07976
N         -3.81027        2.21387       -0.22086
H         -4.78047        1.91658       -0.32077
H         -3.83574        3.23018       -0.14004
C         -1.68717        1.86646       -0.18511
C         -0.55695        0.97542       -0.02443
N          0.63164        1.70167        0.01483
C          1.85638        1.06347        0.06039
N          3.18698        1.42874        0.10271
C          3.98330        0.28431        0.09810
N          5.08605        0.21663        0.11343
H          5.77955        0.96651        0.09786
H          5.62461       -0.65083        0.08923
N          3.16373       -0.83502        0.05200
C          1.88460       -0.34449        0.03475
C          0.71334       -1.15918       -0.04165
C         -0.57207       -0.49330       -0.06166
H          0.81762       -2.23810       -0.08707
H         -1.49471        2.92610       -0.35136
H         -4.18149        0.22836        1.23607
H         -3.83052       -1.66055       -0.25566
