30
Coordinates from ORCA-job ./opt_b97-3c_parallel
N          5.96971        0.92306       -0.05950
C          4.90757        1.32193        0.07698
C          3.57136        0.81977        0.13930
C          2.32999        1.53473        0.08196
C          1.16455        0.78788        0.04145
C          1.28564       -0.64001        0.06162
C          2.68953       -0.31589        0.04869
N          3.32336       -1.51649       -0.11487
H          4.31583       -1.51472       -0.32519
H          2.77356       -2.31365       -0.41576
C          0.06110       -1.39547        0.03858
N          0.27441       -2.74436        0.12258
H         -0.51342       -3.34110        0.34669
H          1.19661       -3.06226        0.39956
C         -1.20391       -0.78766       -0.03310
C         -2.34879       -1.61022       -0.07539
C         -3.67703       -1.18195       -0.11778
C         -4.08093        0.19804       -0.08869
N         -3.59834        1.18911       -0.12394
C         -2.50427        1.33851       -0.13092
C         -1.25696        0.62225       -0.06146
C         -0.09002        1.38974       -0.02092
H         -0.16267        2.47542       -0.04041
H         -2.68904        2.39446        0.03219
N         -5.37936        0.57820        0.09585
H         -6.11890       -0.11508        0.08163
H         -5.63517        1.55683        0.02934
H         -4.47641       -1.91833       -0.15704
H         -2.21592       -2.68809       -0.08024
H          2.29428        2.62180        0.06794
