28
Coordinates from ORCA-job ./opt_b97-3c_parallel
N         -0.81930       -4.39679       -0.00133
C         -1.19878       -3.31840       -0.01969
C         -1.70083       -1.95905       -0.04560
C         -3.10471       -1.90070       -0.12413
C         -3.92834       -0.77729       -0.15025
C         -3.47956        0.57474       -0.04280
N         -2.42757        0.85778       -0.05821
C         -1.14005        0.48279       -0.05202
C         -0.14408        1.48447       -0.06607
C         -0.47339        2.89275       -0.11345
N         -0.74347        4.00265       -0.15884
C          1.19128        1.09348       -0.03024
C          1.46378       -0.23324        0.02112
N          0.55726       -1.22346        0.02312
C         -0.76543       -0.88823       -0.01963
C          2.87043       -0.33908        0.05273
C          3.65933       -1.52973        0.11501
N          4.56631       -2.17581        0.37370
C          3.13495        1.08455        0.00585
N          4.41091        1.56944        0.01410
H          4.57949        2.56113       -0.11416
H          5.20001        0.93312       -0.02713
N          2.31095        1.85187       -0.03668
N         -4.28905        1.60534        0.33088
H         -3.92166        2.55007        0.36628
H         -5.29465        1.47893        0.35901
H         -5.00627       -0.90365       -0.22403
H         -3.63419       -2.85110       -0.17362
