31
Coordinates from ORCA-job ./opt_b97-3c_parallel
N          4.78875        2.34189        0.05243
C          3.98554        1.52782        0.02858
C          2.96322        0.50157        0.01311
C          3.36489       -0.84386       -0.00704
C          2.54192       -1.96470       -0.02588
C          1.15694       -2.04977       -0.02901
C          0.19789       -1.03748       -0.01420
C         -1.12449       -1.49029       -0.02232
C         -2.29044       -0.64548       -0.01180
C         -2.05655        0.76755        0.00688
C         -3.30817        1.46690        0.00461
N         -3.52113        2.81321       -0.05084
H         -2.73907        3.41444       -0.28481
H         -4.45533        3.14528       -0.26269
C         -4.28227        0.41171        0.00166
C         -3.70113       -0.90149       -0.00595
N         -4.35078       -2.09942        0.05279
H         -3.81104       -2.92816        0.27524
H         -5.33844       -2.10063        0.28194
H         -5.35300        0.58984        0.00063
C         -0.68156        1.19355        0.01755
C          0.42744        0.34327        0.00691
C          1.66061        1.00185        0.01960
H          1.59732        2.08964        0.03609
H         -0.58130        2.27654        0.03587
H         -1.37107       -2.54969       -0.03955
H          0.78091       -3.07071       -0.04535
H          3.04764       -2.92870       -0.04044
N          4.70721       -1.13443       -0.00888
H          5.39003       -0.38398        0.00008
H          5.02336       -2.09794       -0.03017
