26
Coordinates from ORCA-job ./opt_b97-3c_parallel
N         -6.12346       -0.19016       -0.01260
C         -4.98129       -0.14947       -0.01026
C         -3.54427       -0.08045       -0.00719
C         -2.79539        1.09199       -0.00790
C         -1.46251        0.71404       -0.00431
C         -1.39104       -0.65943       -0.00138
C         -2.67939       -1.17140       -0.00311
H         -2.96129       -2.22169       -0.00159
C         -0.16856       -1.31673        0.00266
C          1.00251       -0.54521        0.00365
C          2.26066       -1.24636        0.00783
N          3.34779       -1.04925        0.00953
C          3.82542       -0.05481        0.00777
N          5.14605       -0.40161        0.00752
H          5.42321       -1.37659        0.01735
H          5.86572        0.31230        0.01425
C          3.39355        1.31769        0.00441
C          2.05620        1.71742        0.00101
C          0.93535        0.87089        0.00054
C         -0.31948        1.50010       -0.00338
H         -0.40592        2.58438       -0.00570
H          1.87961        2.79035       -0.00154
H          4.17769        2.07111        0.00445
H          2.44129       -2.31538        0.00846
H         -0.12437       -2.40347        0.00506
H         -3.18163        2.10858       -0.01075
