29
Coordinates from ORCA-job ./opt_b97-3c_parallel
N         -1.00097       -3.39976        1.11229
C         -1.11449       -2.34644        0.68203
C         -1.28555       -0.99583        0.16054
C         -2.63927       -0.63443       -0.02792
C         -3.17454        0.62429       -0.26823
C         -2.56151        1.85860       -0.15935
C         -1.23129        2.11365        0.12996
C         -0.13504        1.24675        0.16757
C          1.07258        1.95743        0.31968
C          2.28990        1.31322        0.23558
C          2.30317       -0.00503       -0.03777
C          3.67608       -0.29714       -0.17963
C          4.24846        1.00165        0.09126
N          3.52847        1.84724        0.29407
H          5.28878        1.30351        0.11698
H          4.19152       -1.22682       -0.39905
C          1.15832       -0.77810       -0.17916
C          1.39125       -2.09715       -0.73240
N          1.59270       -3.12667       -1.18715
C         -0.12541       -0.17550        0.03258
H          1.08066        3.03594        0.46559
H         -1.00759        3.17370        0.24544
N         -3.36869        2.95122       -0.32088
H         -2.93591        3.86169       -0.43207
H         -4.29216        2.81641       -0.71812
H         -4.24502        0.65670       -0.47241
N         -3.60965       -1.61143       -0.00712
H         -4.58244       -1.33146        0.05029
H         -3.36154       -2.53565        0.33132
