32
Coordinates from ORCA-job ./opt_b97-3c_parallel
N          5.05330        1.93732       -0.25420
C          4.12009        1.28875       -0.13195
C          2.94192        0.45110        0.01301
C          3.26587       -0.86840        0.26834
C          2.42998       -1.95193        0.40983
C          1.05323       -2.05095        0.24974
N          0.65781       -3.33915        0.50904
H          1.32437       -3.97300        0.93508
H         -0.32695       -3.50375        0.69082
C          0.09867       -1.02299        0.00256
C         -1.26193       -1.40443       -0.25525
N         -1.67183       -2.64610       -0.67433
H         -0.95797       -3.28835       -1.00254
H         -2.59723       -2.73157       -1.07875
C         -2.27668       -0.46001       -0.16637
C         -2.01448        0.81706        0.10819
C         -3.23392        1.54557        0.19995
N         -3.65294        2.78108        0.59398
H         -4.63449        2.92066        0.80582
H         -2.98779        3.40735        1.03336
N         -3.55635        0.49817       -0.08230
C         -3.68959       -0.60266       -0.31593
H         -4.24182       -1.33086       -0.89675
C         -0.71519        1.27483        0.16915
C          0.38592        0.38583        0.04898
C          1.65740        1.02518       -0.04033
N          1.66349        2.38488       -0.27833
H          2.53879        2.81518       -0.55714
H          0.81161        2.81120       -0.62468
H         -0.60592        2.34337        0.32849
H          2.96085       -2.87446        0.64229
H          4.32465       -1.10334        0.37347
