34
Coordinates from ORCA-job ./opt_b97-3c_parallel
N          6.40974        0.15831        0.20189
C          5.26859        0.11811        0.15945
C          3.83111        0.06149        0.11964
C          2.99198        1.14806        0.22414
C          1.62928        0.69233        0.14204
C          1.68725       -0.74530       -0.02664
C          3.08695       -1.08755       -0.03013
H          3.58117       -2.05092       -0.13157
C          0.42437       -1.43614       -0.14111
N          0.69648       -2.77555       -0.04612
H         -0.06892       -3.39258        0.20472
H          1.62994       -3.05395        0.23327
C         -0.85006       -0.82921       -0.17868
C         -2.04284       -1.59533       -0.31355
N         -2.01734       -2.90738       -0.70847
H         -1.16795       -3.25000       -1.14431
H         -2.89134       -3.34252       -0.98080
C         -3.33242       -1.10426       -0.07820
C         -3.63301        0.21431        0.41482
N         -3.14453        1.18016        0.18917
C         -2.11036        1.32268       -0.17539
N         -2.31337        2.30292       -1.11006
H         -3.16966        2.84462       -1.08046
H         -1.50737        2.72173       -1.56095
C         -0.87267        0.57795       -0.06692
C          0.31974        1.28837        0.12216
N          0.37884        2.64710        0.28480
H         -0.48199        3.14695        0.48239
H          1.25466        3.06699        0.57403
N         -4.71767        0.46904        1.20447
H         -5.02320        1.42606        1.33753
H         -5.38027       -0.27315        1.39962
H         -4.20459       -1.74247       -0.20531
H          3.40095        2.14846        0.34399
