28
Coordinates from ORCA-job ./opt_b97-3c_parallel
N         -2.60856       -3.78926       -0.16593
C         -2.54795       -2.64986       -0.15499
C         -2.42834       -1.22134       -0.12609
C         -3.65885       -0.46874       -0.17740
C         -3.79474        0.88103       -0.24832
C         -2.79844        1.75842        0.01553
N         -1.48836        1.94107        0.15793
C         -0.77983        0.75285        0.05774
N          0.45459        1.13866        0.14858
C          1.50133        0.36870        0.10530
C          1.37095       -1.05900        0.01705
C          2.50518       -1.82754       -0.02180
C          3.37043       -0.76684        0.03612
N          4.42429       -1.09728        0.00175
H          5.12986       -0.40175       -0.23982
H          4.92685       -1.97057        0.15802
C          2.85205        0.56387        0.11263
C          3.50178        1.83805        0.17361
N          3.65593        2.55417       -0.70373
H          2.61277       -2.68846        0.63853
C          0.00382       -1.52472       -0.03289
C         -1.15374       -0.64890       -0.05871
H          0.09546       -2.43352        0.56048
N         -2.90051        2.84060        0.20676
H         -2.50862        3.77055        0.35325
H         -3.90618        2.93494        0.34405
H         -4.76111        1.27189       -0.56522
H         -4.56649       -1.06662       -0.21598
