36
Coordinates from ORCA-job ./opt_b97-3c_parallel
N         -3.82299       -3.64583       -0.75271
C         -3.23233       -2.70003       -0.49937
C         -2.47118       -1.50087       -0.20009
C         -1.12208       -1.75505        0.00922
C         -0.03967       -0.88438        0.10029
C          1.18596       -1.55639        0.15327
C          2.48209       -0.94319        0.13584
C          2.50865        0.46293       -0.12193
C          3.88195        0.88990       -0.18260
N          4.52048        2.08712       -0.34140
H          3.98412        2.93801       -0.20917
H          5.52417        2.12959       -0.20661
C          4.63743       -0.32329       -0.04464
C          3.81380       -1.47077        0.20888
N          4.19389       -2.75551        0.47019
H          3.48790       -3.48330        0.47194
H          5.15794       -3.02334        0.30482
H          5.72088       -0.36623       -0.09722
C          1.21838        1.11871       -0.15156
N          1.43965        2.35070       -0.71406
H          2.34476        2.51898       -1.14051
H          0.64086        2.84000       -1.10391
C         -0.05060        0.52001        0.06223
C         -1.19537        1.33795        0.26295
N         -0.94251        2.64760        0.61950
H         -1.70025        3.22515        0.96818
H          0.01080        2.91628        0.84258
C         -2.56892        0.97822        0.22510
C         -3.52921        2.04001        0.52182
N         -4.28052        2.86389        0.77495
C         -3.13717       -0.26923       -0.11045
N         -4.50441       -0.31094       -0.31989
H         -4.96746       -1.20280       -0.45249
H         -5.06680        0.51119       -0.13478
H          1.26296       -2.64139        0.17926
H         -0.86176       -2.81412        0.00170
