29
Coordinates from ORCA-job ./opt_b97-3c_parallel
N          6.70952        0.40279       -0.19066
C          5.57083        0.32361       -0.13309
C          4.13625        0.23484       -0.07119
C          3.39215       -0.93435       -0.19645
C          2.05951       -0.57297       -0.08307
C          1.98417        0.78628        0.10803
C          3.26848        1.30611        0.11896
H          3.54556        2.34986        0.24718
C          0.76360        1.43212        0.24377
C         -0.41671        0.67365        0.17798
C         -1.62140        1.39110        0.27337
C         -2.91195        0.87350        0.11594
C         -4.03339        1.77231        0.24376
N         -4.91511        2.49419        0.33390
C         -3.16028       -0.50827       -0.22433
N         -2.58734       -1.45342       -0.19001
C         -1.50864       -1.56841        0.02155
N         -1.56247       -2.78391        0.64809
H         -0.70881       -3.22802        0.96607
H         -2.40344       -3.34703        0.58627
C         -0.33130       -0.73337        0.01467
C          0.91711       -1.35813       -0.13114
H          0.99531       -2.43351       -0.27227
N         -4.28612       -0.95538       -0.86187
H         -5.08695       -0.33966       -0.95123
H         -4.44042       -1.95249       -0.96107
H         -1.54907        2.46131        0.45923
H          0.73367        2.51117        0.37993
H          3.78192       -1.93751       -0.35508
