28
Coordinates from ORCA-job ./opt_b97-3c_parallel
N         -0.99406       -4.47676       -0.00174
C         -1.42980       -3.42034       -0.00520
C         -1.43679       -1.98098        0.00072
C         -2.84437       -1.68926        0.00279
C         -3.45217       -0.48564        0.01734
C         -2.99657        0.79980        0.00453
N         -3.87810        1.47656       -0.00012
H         -3.76973        2.49035        0.00728
H         -4.88361        1.30458        0.00340
C         -1.63491        1.29790        0.00437
C         -1.45018        2.73283        0.00193
N         -1.26044        3.85962        0.00178
C         -0.45307        0.42354        0.00723
N          0.73456        1.17329        0.00762
C          1.96349        0.55887        0.00591
C          2.06965       -0.85428        0.00368
C          3.53467       -0.63119        0.00055
C          4.24375        0.53281        0.00037
N          5.29278        0.88025       -0.00259
H          5.63882        1.84151       -0.00515
H          6.12849        0.29275       -0.00509
N          3.11156        1.32441        0.00402
H          4.03624       -1.59828       -0.00221
C          0.91267       -1.68873        0.00464
C         -0.39779       -1.05208        0.00472
H          1.02022       -2.76681        0.00314
H         -4.53995       -0.62960        0.03800
H         -3.54912       -2.52293       -0.00216
