29
Coordinates from ORCA-job ./opt_b97-3c_parallel
N         -5.65330       -0.78829        0.11973
C         -4.60124       -1.19492       -0.06505
C         -3.26272       -0.70070       -0.13945
C         -2.06126       -1.48241       -0.11658
C         -0.85414       -0.80376       -0.08711
C         -0.89345        0.62401       -0.08426
C         -2.31352        0.37976       -0.05980
N         -2.92035        1.59423        0.10345
H         -2.35180        2.37999        0.39906
H         -3.91077        1.61343        0.32235
C          0.38646        1.27439       -0.06763
N          0.20476        2.63014       -0.13257
H         -0.71326        2.97302       -0.39298
H          1.00328        3.20969       -0.36353
C          1.62366        0.59900       -0.02131
C          2.77100        1.40820        0.02303
C          4.11623        1.06423        0.06441
C          4.69467       -0.19300        0.06494
C          4.05470       -1.41925        0.03256
C          2.69261       -1.68642       -0.00185
C          1.59672       -0.81488       -0.02363
C          0.36064       -1.48098       -0.05901
H          0.33277       -2.56893       -0.06299
H          2.46784       -2.75087       -0.01653
H          4.70643       -2.29003        0.03859
H          5.78161       -0.22006        0.09550
H          4.81243        1.89917        0.09887
H          2.62566        2.48396        0.03462
H         -2.08730       -2.57003       -0.11931
