29
Coordinates from ORCA-job ./opt_b97-3c_parallel
N         -4.86181       -2.06141       -0.29709
C         -3.89399       -1.45755       -0.22577
C         -2.66633       -0.70682       -0.11986
C         -2.73422        0.70898        0.15868
N         -2.04277        1.57067        0.11154
C         -0.95588        1.53592       -0.08611
N         -0.83882        2.72236       -0.75758
H          0.06925        3.03309       -1.08382
H         -1.59831        3.39353       -0.73486
C          0.09882        0.55254       -0.03121
C          1.41665        1.00744        0.12016
C          2.44531        0.07322        0.11779
C          2.20389       -1.24260       -0.03715
C          3.44453       -1.94060       -0.00672
N          3.72939       -0.84993        0.12453
C          3.84723        0.26902        0.26341
N          4.77763        1.23666        0.49772
H          4.47303        2.16686        0.76128
H          5.72865        0.96742        0.72245
H          3.65226       -2.96857       -0.27786
C          0.91001       -1.73590       -0.17342
C         -0.16661       -0.83448       -0.15097
C         -1.45299       -1.39382       -0.23946
H         -1.51770       -2.47079       -0.38417
H          0.74753       -2.80660       -0.27663
H          1.63939        2.06549        0.23257
N         -3.81461        1.33715        0.71774
H         -3.83113        2.34955        0.76974
H         -4.69728        0.84328        0.78993
