33
Coordinates from ORCA-job ./opt_b97-3c_parallel
N         -4.88176       -3.42732        0.13917
C         -4.18102       -2.52602        0.08585
C         -3.29941       -1.38502        0.03733
C         -3.91726       -0.14583       -0.05874
C         -3.32735        1.11064       -0.10153
C         -4.23795        2.22287       -0.23449
N         -4.95458        3.10449       -0.35449
C         -1.97450        1.43433       -0.01923
C         -0.84056        0.60977        0.07399
C         -0.83575       -0.79502        0.08002
C         -1.93537       -1.65996        0.07702
H         -1.69596       -2.72231        0.12040
C          0.39447       -1.45637        0.12438
C          1.68679       -0.82474        0.11027
C          1.70292        0.60834        0.15222
C          3.06830        1.06252        0.09461
N          3.62517        2.30195       -0.06257
H          4.61588        2.36332       -0.27055
H          3.02774        3.06407       -0.36428
C          3.81807       -0.16006        0.20173
C          5.24268       -0.29737        0.23216
N          6.28518       -0.23366       -0.23494
C          3.02293       -1.34564        0.03232
N          3.28753       -2.66931       -0.18581
H          2.53216       -3.27645       -0.48325
H          4.23730       -2.93930       -0.41943
C          0.40852        1.25697        0.17125
N          0.57279        2.60617        0.34684
H          1.48614        2.93313        0.64400
H         -0.23086        3.15202        0.63670
H          0.46747       -2.54168        0.14888
H         -1.79515        2.50568       -0.05899
H         -5.00660       -0.16137       -0.10824
