39
Coordinates from ORCA-job ./opt_b97-3c_parallel
N         -4.24600       -3.55905       -1.09517
C         -3.69420       -2.61967       -0.74635
C         -2.98154       -1.42656       -0.32740
C         -1.64659       -1.66567       -0.02519
C         -0.57573       -0.78224        0.15059
C         -0.63183        0.62110        0.07496
C         -1.79945        1.40150        0.29704
N         -1.58324        2.70087        0.71330
H         -2.35553        3.23316        1.09976
H         -0.63778        2.98497        0.94869
C         -3.16081        1.00949        0.24058
C         -4.15412        2.01996        0.60109
N         -4.93132        2.80170        0.90471
C         -3.68696       -0.22339       -0.19552
N         -5.04262       -0.28298       -0.45830
H         -5.47786       -1.18088       -0.64221
H         -5.63477        0.50443       -0.21482
C          0.61119        1.26820       -0.13360
N          0.76396        2.51008       -0.69865
H          1.64932        2.72472       -1.14481
H         -0.06560        2.97033       -1.05891
C          1.92499        0.65994       -0.11296
C          1.96411       -0.72955        0.23517
C          3.33128       -1.18618        0.24153
N          3.87713       -2.43031        0.41512
H          4.86018       -2.55885        0.19745
H          3.26854       -3.23751        0.34076
C          4.10456       -0.01063       -0.05484
C          5.52509       -0.02573       -0.24037
N          6.66440        0.02031       -0.16240
C          3.27497        1.14876       -0.24671
N          3.79376        2.39183       -0.49598
H          4.79407        2.53015       -0.39740
H          3.18776        3.19997       -0.40491
C          0.68308       -1.38820        0.33358
N          0.85866       -2.69268        0.71961
H          0.05696       -3.18252        1.10102
H          1.76750       -2.94824        1.09119
H         -1.39013       -2.72201       -0.06577
