28
Coordinates from ORCA-job ./opt_b97-3c_parallel
N          0.41194        4.39590       -0.17025
C          0.73098        3.29880       -0.12430
C          1.16221        1.91164       -0.06117
C          2.54623        1.81013       -0.02240
C          3.34720        0.68950        0.02669
C          2.98582       -0.64732        0.06227
N          4.08084       -1.48051        0.09103
H          3.94194       -2.47665       -0.04607
H          4.99855       -1.09537       -0.10325
C          1.68641       -1.19713        0.08073
C          1.65332       -2.65837        0.12923
N          1.64400       -3.80179        0.15879
C          0.43079       -0.52708        0.04885
N         -0.65650       -1.36148        0.10305
C         -1.90235       -0.86822        0.05552
C         -2.12195        0.47404       -0.06148
N         -1.09748        1.33764       -0.10037
C          0.19288        0.88313       -0.03691
C         -3.47756        0.92379       -0.13822
C         -3.77342       -0.48751       -0.02901
N         -5.11849       -0.72199       -0.10672
H         -5.47188       -1.64291        0.13028
H         -5.75864        0.06357       -0.06756
C         -3.04388       -1.72753        0.11887
H         -3.19880       -2.61908       -0.48043
H         -3.89848        1.71642        0.47202
H          4.41516        0.90494        0.03560
H          3.10468        2.74605       -0.04097
