25
Coordinates from ORCA-job ./opt_b97-3c_parallel
N         -1.20743       -3.94291        0.03039
C         -1.35295       -2.80921        0.01666
C         -1.56376       -1.37275       -0.00049
C         -2.91898       -1.04313       -0.01507
C         -3.53376        0.19643       -0.03290
C         -2.94263        1.44841       -0.04095
N         -3.79867        2.51487       -0.05974
H         -3.43001        3.44553        0.10406
H         -4.78660        2.35533        0.10562
C         -1.58406        1.74221       -0.03409
C         -0.46376        0.90626       -0.01625
N          0.70017        1.61295       -0.01421
C          1.86985        0.94547        0.00237
N          3.12317        1.41417        0.00818
C          3.36252        0.31042        0.02146
N          4.73298        0.33243        0.03746
H          5.26211       -0.53260        0.04242
H          5.23440        1.21359        0.02835
N          3.18516       -0.80481        0.03139
C          1.90764       -0.40727        0.01686
N          0.77807       -1.14086        0.01569
C         -0.43843       -0.51676       -0.00065
H         -1.35940        2.80931       -0.04490
H         -4.62226        0.17184       -0.04223
H         -3.61967       -1.87754       -0.01230
