34
Coordinates from ORCA-job ./opt_b97-3c_parallel
N         -6.14411       -0.29593        0.45284
C         -5.05003       -0.41724        0.14383
C         -3.64702       -0.15511        0.07934
C         -2.84654       -1.34228       -0.01612
C         -1.49685       -0.84913       -0.00296
C         -1.52535        0.58224        0.10426
C         -0.25823        1.26107        0.08342
C          0.96797        0.62197       -0.09085
C          2.13865        1.46431       -0.17219
N          3.18767        1.39002        0.16761
C          3.74938        0.45033        0.31926
N          4.76337        0.74456        1.18543
H          4.93951        1.70763        1.44897
H          5.46747        0.04788        1.39999
C          3.53300       -0.87647       -0.19318
C          2.27433       -1.46393       -0.36865
N          2.32345       -2.77191       -0.77149
H          1.47575       -3.17846       -1.15392
H          3.20848       -3.13922       -1.10299
C          1.03704       -0.78169       -0.19184
C         -0.19345       -1.46932       -0.10915
N         -0.35345       -2.82123        0.04566
H          0.46808       -3.36178        0.29646
H         -1.24916       -3.15933        0.37799
H          4.44440       -1.44448       -0.37012
N          2.19235        2.61462       -0.91094
H          3.00939        3.21184       -0.84738
H          1.34107        3.00748       -1.29558
H         -0.31824        2.34337        0.16827
C         -2.87905        1.05701        0.13853
N         -3.34479        2.34018        0.16009
H         -4.33398        2.49400        0.32566
H         -2.69969        3.09229        0.37391
H         -3.15237       -2.38329        0.05782
