37
Coordinates from ORCA-job ./opt_b97-3c_parallel
N          6.46849        0.10391       -0.37297
C          5.40582       -0.31724       -0.43015
C          4.00284       -0.05076       -0.36302
C          3.26866       -1.27648       -0.22423
C          1.90040       -0.85695       -0.10026
C          1.84559        0.57385       -0.00181
C          3.18444        1.09696       -0.08661
N          3.76638        2.33167       -0.00707
H          3.23636        3.09418        0.40044
H          4.77904        2.39382       -0.00230
C          0.53201        1.16553        0.14264
N          0.66206        2.51561       -0.05264
H         -0.17202        3.03716       -0.30171
H          1.54796        2.85681       -0.41019
C         -0.68725        0.46007        0.24199
C         -1.92640        1.13728        0.44226
N         -1.93682        2.42468        0.92542
H         -1.07682        2.79267        1.31947
H         -2.81337        2.80815        1.26296
C         -3.18756        0.55083        0.21225
C         -4.43539        1.23305        0.48652
N         -5.41420        1.78609        0.69568
C         -3.35986       -0.75718       -0.37648
N         -2.81304       -1.70248       -0.20170
C         -1.78859       -1.77552        0.20662
N         -1.94839       -2.81755        1.08004
H         -1.12804       -3.21255        1.52626
H         -2.76102       -3.41674        0.98298
C         -0.60325       -0.94445        0.13295
C          0.64282       -1.56033       -0.05097
N          0.80001       -2.91377       -0.18959
H         -0.02289       -3.48698       -0.34468
H          1.70317       -3.27985       -0.46915
N         -4.20401       -1.02181       -1.42091
H         -4.37353       -1.98569       -1.68492
H         -4.91033       -0.33726       -1.66806
H          3.59438       -2.28587        0.01713
