29
Coordinates from ORCA-job ./opt_b97-3c_parallel
N          4.43941        2.35201       -0.11161
C          3.61304        1.56420       -0.05321
C          2.55748        0.57191        0.00367
C          2.91609       -0.78150        0.06237
C          2.05222       -1.86921        0.10177
C          0.66550       -1.91202        0.06693
C         -0.27816       -0.87801        0.01627
C          0.00986        0.50432        0.01379
C          1.27112        1.11272        0.00118
H          1.25404        2.20201       -0.02457
C         -1.05054        1.42448        0.01356
C         -2.37753        1.01857        0.00604
C         -2.75368       -0.37395       -0.03518
C         -4.19371       -0.18657       -0.01994
C         -4.57933        1.14097        0.02277
C         -3.44073        1.89942        0.03703
H         -3.38726        2.98492        0.07314
H         -5.60045        1.51368        0.04367
H         -4.94437       -0.97282       -0.03712
C         -1.63314       -1.27211       -0.02649
N         -2.10354       -2.55486       -0.11636
H         -1.45453       -3.28422       -0.38835
H         -3.08041       -2.68576       -0.35409
H         -0.85026        2.49455        0.02752
H          0.28982       -2.92990        0.09864
H          2.52430       -2.84889        0.15533
N          4.24609       -1.12078        0.08264
H          4.95580       -0.39569        0.06956
H          4.52525       -2.09239        0.15980
