34
Coordinates from ORCA-job ./opt_b97-3c_parallel
N          6.20521        0.86401       -0.36135
C          5.14302        1.28328       -0.31919
C          3.79576        0.80982       -0.26150
C          2.56000        1.53716       -0.24133
C          1.39647        0.80658       -0.06849
C          1.52271       -0.60915        0.09249
C          2.92646       -0.32325       -0.06770
N          3.59926       -1.51374       -0.03224
H          4.61358       -1.49800       -0.00899
H          3.12574       -2.32581        0.34780
C          0.29445       -1.34744        0.20613
N          0.58854       -2.67659        0.06474
H         -0.16804       -3.28843       -0.22234
H          1.51931       -2.91510       -0.25907
C         -0.98617       -0.75193        0.24033
C         -2.16552       -1.53278        0.39360
N         -2.11087       -2.83682        0.81083
H         -2.96820       -3.27971        1.12096
H         -1.23921       -3.16643        1.21258
C         -3.46410       -1.06049        0.17131
C         -3.78184        0.23702       -0.36158
N         -3.30374        1.22087       -0.20293
C         -2.27238        1.39180        0.15581
N         -2.45912        2.53897        0.87820
H         -1.66423        3.01694        1.28580
H         -3.33361        3.04593        0.79507
C         -1.02725        0.65914        0.11758
C          0.14289        1.41075       -0.04688
H          0.07408        2.49078       -0.15966
N         -4.80832        0.43120       -1.24076
H         -5.44514       -0.32869       -1.45288
H         -5.07564        1.37239       -1.50498
H         -4.32747       -1.70235        0.33833
H          2.52535        2.61759       -0.36383
