31
Coordinates from ORCA-job ./opt_b97-3c_parallel
N         -4.48016       -2.61265       -0.15015
C         -3.73233       -1.74932       -0.09534
C         -2.77254       -0.66499       -0.03498
C         -3.25132        0.65036        0.03506
C         -2.48955        1.81181        0.08655
C         -1.11216        1.98046        0.06518
C         -0.08001        1.03400        0.00976
C         -0.24649       -0.35931       -0.02137
C         -1.44195       -1.08493       -0.04718
H         -1.31911       -2.16700       -0.08860
C          0.89672       -1.16400       -0.04557
C          2.25360       -0.69193       -0.01430
C          2.44024        0.72726       -0.01608
C          3.84760        1.00981        0.02325
C          4.46776       -0.28251       -0.04425
C          3.52240       -1.35895        0.03849
N          3.80062       -2.68549        0.19436
H          4.74955       -2.95847        0.42535
H          3.04754       -3.31085        0.45800
H          5.53921       -0.42837       -0.13656
H          4.44001        1.90567       -0.14385
C          1.23916        1.52891       -0.01677
N          1.58548        2.85401       -0.06682
H          2.54712        3.08751       -0.28740
H          0.87047        3.52920       -0.31181
H          0.84574       -2.25035       -0.07803
H         -0.82967        3.02763        0.10988
H         -3.04904        2.74429        0.14316
N         -4.60701        0.86705        0.05574
H         -4.95441        1.78906        0.29473
H         -5.22729        0.07348        0.17825
