22
Coordinates from ORCA-job ./opt_b97-3c_parallel
N         -1.54763       -3.22012       -1.78148
C         -1.45229       -2.36089       -1.03399
C         -1.32808       -1.31500       -0.06413
C         -2.51078       -1.17214        0.60265
C         -3.13335        0.00099        0.57456
C         -2.54006        1.04235       -0.07688
N         -1.41801        1.64796       -0.49124
C         -0.26550        0.96636       -0.26859
N          0.88727        1.67716       -0.33904
C          2.05087        1.04494       -0.08351
N          3.26689        1.57491       -0.08604
C          3.99814        0.49718        0.23813
N          3.35336       -0.71567        0.45683
C          2.10420       -0.29546        0.23552
N          0.98312       -1.04227        0.27979
C         -0.19495       -0.42410        0.01935
H          5.09255        0.56308        0.33028
N         -3.07608        1.93137       -0.44792
H         -4.03567        1.83578       -0.77325
H         -2.90175        2.92868       -0.33358
H         -4.08101        0.13339        1.09327
H         -2.94977       -2.01314        1.13566
