24
Coordinates from ORCA-job ./opt_b97-3c_parallel
N          1.00036        4.00727        0.23589
C          1.17184        2.87979        0.16907
C          1.36487        1.46455        0.05171
C          2.74156        1.04134       -0.04984
C          3.20029       -0.21060       -0.30180
C          2.50398       -1.33447       -0.01945
N          1.28343       -1.84233        0.11951
C          0.29356       -0.87249        0.05155
N         -0.76620       -1.62186        0.08489
C         -1.96931       -1.14169        0.07229
C         -2.12653        0.26076        0.06700
N         -3.44808        0.57491        0.08219
C         -4.03486       -0.68046        0.09242
C         -3.18391       -1.76365        0.07393
H         -3.38150       -2.60727       -0.58364
H         -5.12367       -0.51906        0.10735
C         -1.07911        1.15451        0.05501
C          0.26774        0.59167        0.03163
H         -1.27748        2.22187        0.05896
N          2.90889       -2.34817        0.14014
H          3.91311       -2.17291        0.14119
H          2.79303       -3.32186        0.41948
H          4.18599       -0.30674       -0.75580
H          3.47777        1.84080       -0.00479
