29
Coordinates from ORCA-job ./opt_b97-3c_parallel
N         -0.83050       -3.35618        1.15108
C         -0.99177       -2.31356        0.70931
C         -1.22255       -0.97758        0.17292
C         -2.59149       -0.67726       -0.01693
C         -3.18093        0.55491       -0.26913
C         -2.62339        1.81587       -0.16732
C         -1.30794        2.12964        0.13196
C         -0.17720        1.31021        0.18319
C          0.99594        2.06325        0.35978
C          2.21621        1.43132        0.30841
C          2.34766        0.13107       -0.01691
N          3.65366       -0.18800       -0.18541
C          4.27063        0.73788        0.00405
C          3.53058        1.93195        0.34032
H          3.91308        2.92253        0.56347
H          5.33978        0.59524       -0.09876
C          1.20862       -0.66011       -0.17998
C          1.45646       -1.95802       -0.78091
N          1.65594       -2.96958       -1.27544
C         -0.09935       -0.10844        0.04174
H          0.97286        3.14146        0.50540
H         -1.12959        3.19831        0.24727
N         -3.47660        2.87120       -0.33915
H         -4.39297        2.69365       -0.73620
H         -3.08418        3.79924       -0.45449
H         -4.25106        0.53833       -0.47665
N         -3.51760       -1.69548        0.01251
H         -4.50164       -1.45813        0.07095
H         -3.22836       -2.60575        0.35620
