34
Coordinates from ORCA-job ./opt_b97-3c_parallel
N         -5.95634       -0.66270        0.39906
C         -4.84925       -0.59762        0.67345
C         -3.47487       -0.25043        0.47512
C         -2.66449       -1.39892        0.17997
C         -1.33402       -0.85996        0.10547
C         -1.42616        0.57041        0.04685
C         -2.81421        0.94463        0.02658
N         -3.50972        2.01462       -0.46232
H         -3.02551        2.66367       -1.07230
H         -4.51330        1.91901       -0.57726
C         -0.17888        1.29508        0.00989
N         -0.33935        2.65475        0.01985
H         -1.27363        3.02546       -0.11665
H          0.44394        3.23433       -0.26071
C          1.07929        0.68925       -0.08049
C          2.23836        1.55083       -0.11249
N          3.31084        1.51604        0.15109
C          3.91884        0.59575        0.12605
N          5.07276        0.95690        0.76051
H          5.85436        0.31133        0.80360
H          5.22550        1.92016        1.03518
C          3.68713       -0.74534       -0.33723
C          2.43408       -1.36501       -0.39453
N          2.48790       -2.67226       -0.80050
H          1.62275       -3.09665       -1.11858
H          3.34774       -3.00243       -1.22383
C          1.18992       -0.71317       -0.15469
C         -0.01207       -1.43747       -0.00751
N         -0.11357       -2.78664        0.20904
H          0.73562       -3.28255        0.45975
H         -0.98657       -3.14794        0.57608
H          4.59335       -1.29523       -0.58246
H          2.36888        2.51848        0.36105
H         -2.80655       -2.32432        0.73378
