25
Coordinates from ORCA-job ./opt_b97-3c_parallel
N         -0.86341       -3.84815       -0.57201
C         -1.03839       -2.73895       -0.36115
C         -1.28574       -1.33859       -0.14566
C         -2.66944       -1.25685       -0.22695
C         -3.49223       -0.10109       -0.04901
C         -3.08252        1.19923        0.09752
N         -1.82563        1.74997       -0.01924
C         -0.59763        1.11530       -0.09484
C          0.46246        2.08027       -0.19478
C          1.75767        1.65245       -0.15403
N          2.87941        2.35229       -0.22340
C          3.83203        1.35941       -0.06045
N          3.41046        0.13741        0.11714
C          2.12597        0.30879        0.05060
C          1.06836       -0.69026        0.14921
C          1.70235       -1.94881        0.46308
N          1.61473       -2.32244        1.54068
C         -0.27084       -0.29854       -0.01009
H          4.91356        1.56642       -0.06282
H          0.21936        3.13510       -0.29333
N         -3.65424        2.13286        0.24000
H         -3.49180        3.11565        0.45850
H         -4.55997        1.90592        0.65076
H         -4.56165       -0.29657       -0.04548
H         -3.26797       -2.15899       -0.37001
