24
Coordinates from ORCA-job ./opt_b97-3c_parallel
N         -1.46699       -3.60728       -1.24832
C         -1.45220       -2.55877       -0.79462
C         -1.40787       -1.26735       -0.17173
C         -2.61408       -1.09784        0.45384
C         -3.17655        0.10346        0.48925
C         -2.49317        1.16433       -0.02197
N         -1.33210        1.74752       -0.34100
C         -0.22063        0.98478       -0.19651
N          0.95701        1.66021       -0.21796
C          2.13184        1.00622       -0.08364
N          3.35782        1.54341       -0.09084
C          3.64063        0.46849        0.03696
C          3.53576       -0.89983        0.16250
C          2.17216       -0.35128        0.06957
C          1.00200       -1.09450        0.09321
C         -0.22590       -0.43330       -0.05154
H          1.05342       -2.17650        0.18683
H          4.42293       -1.52204        0.24906
H          4.68684        0.81071        0.08314
N         -2.93933        2.14019       -0.27854
H         -3.89129        2.09715       -0.63414
H         -2.69470        3.12692       -0.20913
H         -4.14927        0.24135        0.95672
H         -3.14628       -1.94264        0.89231
