31
Coordinates from ORCA-job ./opt_b97-3c_parallel
N          6.43280        0.75305        0.38671
C          5.30663        0.59952        0.26714
C          3.88651        0.41036        0.13334
C          2.98096        1.40072       -0.17652
C          1.65816        0.83332       -0.20369
C          1.81740       -0.57398        0.11208
C          3.22691       -0.78654        0.30765
H          3.77971       -1.68584        0.56853
C          0.61666       -1.36966        0.15077
N          0.86235       -2.69789        0.37082
H          0.07885       -3.29873        0.60457
H          1.78603       -2.97629        0.68256
C         -0.67307       -0.84466        0.00804
C         -1.80809       -1.74246        0.01024
N         -2.85278       -1.70912        0.36605
C         -3.46910       -0.80419        0.52596
C         -3.32899        0.56401        0.10114
C         -4.54078        1.34098        0.14174
N         -5.49779        1.96443        0.18904
C         -2.10647        1.16830       -0.20916
C         -0.84415        0.53759       -0.18670
C          0.30717        1.32293       -0.34401
N          0.29584        2.66796       -0.59855
H          1.16502        3.11101       -0.87470
H         -0.56830        3.09176       -0.91708
H         -2.15183        2.23182       -0.42484
H         -4.37676       -1.38538        0.64385
N         -1.96185       -2.74276       -0.91251
H         -1.15714       -3.05670       -1.44363
H         -2.76705       -3.35653       -0.86011
H          3.31936        2.41996       -0.34746
