30
Coordinates from ORCA-job ./opt_b97-3c_parallel
N          4.65212        2.42595       -0.15480
C          3.81167        1.65386       -0.08758
C          2.73644        0.68390       -0.01698
C          3.05971       -0.67733       -0.02494
C          2.17706       -1.74816        0.05723
C          0.78341       -1.78686        0.10608
N          0.31250       -3.07326        0.20123
H          0.97368       -3.81009        0.41968
H         -0.64913       -3.21178        0.48976
C         -0.13660       -0.71490        0.07084
C         -1.51160       -1.05686        0.02440
C         -2.48327       -0.06772        0.00761
C         -2.16028        1.22933        0.05698
C         -3.35318        2.00619        0.02427
N         -3.71265        0.93053       -0.01909
C         -3.89759       -0.18546       -0.09466
N         -4.85156       -1.13395       -0.31181
H         -5.78385       -0.84012       -0.58005
H         -4.56357       -2.07102       -0.56974
H         -3.52511        3.00118        0.41624
C         -0.83563        1.63184        0.08814
C          0.19440        0.66950        0.07482
C          1.46674        1.25042        0.05108
H          1.47471        2.34100        0.05970
H         -0.61942        2.69812        0.10336
H         -1.86381       -2.08279       -0.02146
H          2.66126       -2.72503        0.07429
N          4.38127       -1.04449       -0.10396
H          4.60609       -2.01197       -0.30734
H          5.06619       -0.33682       -0.34866
