30
Coordinates from ORCA-job ./opt_b97-3c_parallel
N          5.09722        2.77342        0.36167
C          4.31966        1.94715        0.22416
C          3.34261        0.89607        0.07154
C          3.84236       -0.39384        0.03490
C          3.14370       -1.57479       -0.13151
C          1.77080       -1.80947       -0.17708
N          1.50727       -3.13004       -0.43420
H          0.56472       -3.36938       -0.72522
H          2.26144       -3.70897       -0.78630
C          0.70240       -0.88069       -0.06017
C         -0.62251       -1.37195        0.07172
N         -1.04151       -2.60950        0.48610
H         -1.99770       -2.70126        0.80938
H         -0.34766       -3.21223        0.91610
C         -1.82501       -0.59220        0.11302
C         -1.59287        0.81308       -0.10126
C         -2.74214        1.57490       -0.19792
C         -3.79162        0.70926       -0.04314
C         -5.18641        1.05635       -0.05766
N         -6.29983        1.31810       -0.06700
C         -3.27620       -0.55784        0.14940
H         -3.93894       -1.40401        0.31322
H         -2.80501        2.64874       -0.35669
C         -0.31207        1.34124       -0.15673
C          0.83739        0.53274       -0.09337
C          2.01543        1.29101       -0.04876
H          1.88236        2.37242       -0.05415
H         -0.22000        2.42189       -0.24881
H          3.78500       -2.45186       -0.21413
H          4.92375       -0.50260        0.10437
