32
Coordinates from ORCA-job ./opt_b97-3c_parallel
N         -3.68224       -3.46362        0.36294
C         -3.03458       -2.52868        0.24625
C         -2.19870       -1.34873        0.10864
C         -0.84896       -1.65971       -0.00236
C          0.27893       -0.84480       -0.07658
C          1.47655       -1.58266       -0.12802
C          2.72714       -0.97950       -0.14357
C          2.85492        0.43476       -0.03194
C          4.27107        0.18164        0.05175
N          4.75724        1.37303        0.51108
H          5.72190        1.42038        0.82010
H          4.10391        2.05515        0.88038
C          5.11300       -0.95368       -0.22628
C          3.89771       -1.70996       -0.24177
H          3.87284       -2.79354       -0.33243
H          6.01427       -1.20982        0.32096
C          1.61193        1.14254       -0.11024
C          0.32195        0.56523       -0.11570
C         -0.78141        1.45341       -0.18216
N         -0.46199        2.78369       -0.37824
H         -1.20849        3.42755       -0.61864
H          0.46819        3.01043       -0.71062
C         -2.16898        1.16841       -0.08322
C         -3.06914        2.31864       -0.15834
N         -3.77021        3.22012       -0.22962
C         -2.80440       -0.08188        0.09345
N         -4.18001       -0.07815        0.24195
H         -4.65283        0.80497        0.40452
H         -4.64304       -0.92874        0.54477
H          1.84770        2.20269       -0.09483
H          1.44800       -2.67050       -0.16004
H         -0.64257       -2.73033        0.00880
