33
Coordinates from ORCA-job ./opt_b97-3c_parallel
N         -4.27816       -2.84396       -0.24483
C         -3.57799       -1.94710       -0.13996
C         -2.67840       -0.81417       -0.02654
C         -3.22486        0.47167       -0.01312
C         -2.52834        1.66989        0.07021
C         -1.15892        1.93278        0.09162
N         -0.91127        3.28137        0.17201
H          0.01605        3.58258        0.44880
H         -1.68491        3.89645        0.39814
C         -0.07278        1.02517        0.06930
C          1.22129        1.59355       -0.01187
C          2.38979        0.84069        0.01584
C          2.35591       -0.57043        0.21139
C          3.78606       -0.48024        0.05262
N          4.34702       -1.72623        0.05672
H          3.73567       -2.52743       -0.05542
H          5.31541       -1.82443       -0.22623
C          4.76995        0.55896       -0.10545
C          3.63371        1.42915       -0.13871
H          3.73008        2.50098       -0.29753
H          5.57649        0.54631       -0.83200
C          1.03520       -1.12545        0.22616
N          1.16285       -2.47299        0.43880
H          2.06808       -2.81297        0.74449
H          0.34736       -2.98317        0.75822
C         -0.16540       -0.38795        0.12567
C         -1.33430       -1.16498        0.07385
H         -1.18870       -2.24202        0.07396
H          1.36230        2.66297       -0.13405
H         -3.16590        2.55428        0.09983
N         -4.58999        0.61540       -0.07324
H         -4.98108        1.53603       -0.23896
H         -5.15637       -0.19446       -0.30392
