31
Coordinates from ORCA-job ./opt_b97-3c_parallel
N          6.73507       -0.27899       -0.11430
C          5.59275       -0.25883       -0.12359
C          4.15408       -0.22664       -0.11767
C          3.32683       -1.30991       -0.00149
C          2.03782       -0.81419       -0.00606
C          1.94294        0.62276       -0.13760
C          3.36638        0.90714       -0.19810
H          3.82446        1.88939       -0.28795
C          0.60633        1.14826       -0.04989
N          0.68953        2.48327       -0.34187
H          1.56595        2.83649       -0.70922
H         -0.16058        2.95485       -0.63267
C         -0.55941        0.36484        0.13651
C         -1.84766        0.95847        0.28266
N         -1.96004        2.30626        0.52254
H         -2.85321        2.66416        0.84390
H         -1.12460        2.80552        0.81198
C         -3.05794        0.23367        0.25573
C         -4.34646        0.83697        0.52800
N         -5.35690        1.32437        0.74910
C         -3.14271       -1.17581       -0.04835
N         -2.50761       -2.06480        0.10981
C         -1.44836       -1.96233        0.40451
C         -0.36318       -1.03726        0.20447
C          0.90984       -1.60853        0.13716
H          1.02430       -2.68697        0.22632
H         -1.42170       -3.04700        0.41053
N         -4.04494       -1.71871       -0.92489
H         -4.85445       -1.17392       -1.20022
H         -4.10166       -2.72631       -1.01906
H          3.62797       -2.35017        0.10045
