30
Coordinates from ORCA-job ./opt_b97-3c_parallel
N          6.26215        0.50177       -0.29661
C          5.12911        0.38314       -0.20254
C          3.70091        0.23700       -0.09847
C          2.78784        1.25518       -0.11247
C          1.54409        0.66708        0.01311
C          1.57309       -0.77744        0.10798
C          3.01313       -0.95527        0.03634
H          3.55071       -1.89882        0.07824
C          0.27633       -1.39341        0.14118
N          0.32097       -2.75702        0.24034
H          1.20823       -3.18890        0.47347
H         -0.52371       -3.24327        0.52000
C         -0.91791       -0.65798        0.12856
C         -2.15894       -1.39314        0.15844
N         -3.23368       -1.28147       -0.07211
C         -3.73167       -0.29833       -0.11260
N         -4.94856       -0.66324       -0.61470
H         -5.60090        0.04956       -0.92125
H         -5.09429       -1.61298       -0.93799
C         -3.37352        1.07521        0.12025
C         -2.06143        1.55769        0.18202
N         -1.96147        2.91567        0.34227
H         -1.07051        3.29441        0.64435
H         -2.79607        3.42728        0.60461
C         -0.89331        0.75699        0.11624
C          0.35901        1.39413        0.04725
H          0.43586        2.47637       -0.01027
H         -4.22015        1.75392        0.20670
H         -2.35977       -2.39048       -0.21890
H          3.00094        2.31783       -0.20819
