31
Coordinates from ORCA-job ./opt_b97-3c_parallel
N          5.83718        0.79579       -0.15508
C          4.71701        0.62329       -0.00929
C          3.30360        0.42243        0.13164
C          2.80846        1.70089        0.23346
C          1.64082        1.01251        0.31712
C          1.74062       -0.40360        0.24091
C          2.98994       -0.91625        0.08641
N          3.42793       -2.18336        0.01479
H          4.41259       -2.36833       -0.17405
H          2.88263       -2.89552       -0.46830
C          0.49655       -1.12856        0.34700
C         -0.83908       -0.59649        0.23927
C         -1.86408       -1.60883        0.09699
N         -3.21218       -1.37515       -0.10608
C         -3.61406       -0.06689       -0.10987
N         -3.41438        1.28580        0.00235
C         -2.11583        1.71421        0.23370
N         -2.35431        2.79531        0.28358
H         -2.90793        3.63023        0.07970
H         -1.54875        3.13726        0.81131
C         -0.94556        0.85575        0.29978
C          0.30810        1.55488        0.45539
H          0.46028        2.46562       -0.11983
N         -4.68258       -0.25025       -0.33161
H         -5.11412       -1.17662       -0.32574
H         -5.36619        0.35390       -0.78878
N         -2.15664       -2.66955        0.03112
H         -1.23624       -2.91824        0.39298
H         -2.69749       -3.53471        0.02922
H          0.71524       -2.19241        0.42472
H          2.96745        2.43513       -0.55656
