25
Coordinates from ORCA-job ./opt_b97-3c_parallel
N         -0.62668       -4.29109       -0.02116
C         -0.11993       -3.26640       -0.01253
C          0.54922       -1.97577       -0.00140
C          1.93055       -2.12053        0.00376
C          2.91888       -1.16031        0.02329
C          2.80286        0.21987        0.03526
N          4.02923        0.84360        0.06558
H          4.07683        1.85034       -0.05635
H          4.87098        0.29812       -0.08300
C          1.62349        0.99403        0.02142
C          1.85385        2.43822        0.02109
N          2.05084        3.56489        0.01682
C          0.26783        0.55968        0.00813
N         -0.65032        1.57981        0.00305
C         -1.94728        1.26322       -0.00250
C         -2.43850        0.00988       -0.00088
N         -3.78927        0.03124       -0.00080
C         -4.12283        1.11096       -0.00136
C         -3.07283        2.10386       -0.00319
H         -3.15997        3.18523       -0.00528
H         -5.19771        1.24510       -0.00068
N         -1.57716       -1.01738        0.00022
C         -0.22222       -0.79111        0.00331
H          3.93097       -1.56330        0.03163
H          2.31322       -3.14105       -0.00341
