31
Coordinates from ORCA-job ./opt_b97-3c_parallel
N          5.59192        1.13146        0.47609
C          4.50346        0.83532        0.29183
C          3.12877        0.46810        0.09733
C          2.55206        1.69124       -0.13908
C          1.39478        0.98168       -0.20108
C          1.47360       -0.43429       -0.07322
C          2.76615       -0.85601        0.05561
N          3.53487       -1.93185       -0.19321
H          4.54947       -1.84659       -0.14427
H          3.32473       -2.53776       -0.98536
C          0.31892       -1.18731       -0.06409
N          0.52601       -2.50037       -0.28519
H          0.00640       -3.20005        0.24178
H          1.48608       -2.84476       -0.33887
C         -0.96692       -0.69209       -0.02521
C         -2.03334       -1.65867        0.18434
N         -3.39614       -1.45526        0.28387
C         -3.83990       -0.17791        0.12994
N         -3.65713        1.15819       -0.09736
C         -2.35034        1.58081       -0.26667
N         -2.62096        2.64596       -0.41319
H         -1.74289        2.99798       -0.79972
H         -3.24608        3.45488       -0.40663
C         -1.15816        0.75015       -0.20081
C          0.06158        1.50587       -0.34300
H          0.16388        2.28687        0.40967
N         -4.90431       -0.43415        0.28776
H         -5.34845       -1.35403        0.25832
H         -5.62475        0.19339        0.64643
H         -2.13895       -2.74487        0.33236
H          2.65549        2.51773        0.56362
