32
Coordinates from ORCA-job ./opt_b97-3c_parallel
N          5.22320        2.33237        0.30745
C          4.37067        1.57959        0.19394
C          3.29154        0.63001        0.06855
C          3.65435       -0.70212        0.02151
C          2.83374       -1.80117       -0.14215
C          1.44289       -1.90262       -0.18719
N          1.08425       -3.19530       -0.47304
H          0.13660       -3.35760       -0.79821
H          1.80225       -3.82980       -0.80418
C          0.45909       -0.87924       -0.04941
C          0.75872        0.51994       -0.06220
C          2.00890        1.15237       -0.02303
H          1.98852        2.24177       -0.01804
C         -0.28450        1.46437       -0.09732
C         -1.60038        1.04844       -0.07638
C         -1.90634       -0.24791        0.03897
C         -3.32650       -0.35749        0.14688
N         -4.39754       -1.19561        0.25729
H         -5.33457       -0.82437        0.15131
H         -4.26354       -2.19152        0.12328
N         -3.15617        0.75977        0.05978
C         -2.79354        1.82573       -0.06026
N         -3.10777        3.14782       -0.17257
H         -4.06460        3.45585       -0.04091
H         -2.37321        3.84560       -0.20505
C         -0.92548       -1.23657        0.08438
N         -1.39464       -2.49578        0.36174
H         -0.72409       -3.17774        0.70005
H         -2.34619       -2.57445        0.70314
H         -0.08795        2.53389       -0.13005
H          3.38746       -2.73494       -0.23592
H          4.71942       -0.92219        0.07305
