27
Coordinates from ORCA-job ./opt_b97-3c_parallel
N          0.73789        3.74231       -0.88799
C          0.94999        2.67173       -0.54691
C          1.26030        1.31603       -0.13892
C          2.64696        1.18310       -0.02321
C          3.43162        0.06655        0.18925
C          3.03750       -1.25612        0.18984
N          4.03104       -2.18249        0.34434
H          3.82272       -3.16551        0.20457
H          4.99996       -1.88335        0.33161
C          1.75057       -1.74296        0.01474
C          0.51370       -1.09127       -0.05777
N         -0.48363       -2.01451       -0.14523
C         -1.75854       -1.61790       -0.14189
C         -2.09842       -0.31280        0.02842
C         -3.46688       -0.25724        0.12520
C         -3.93179       -1.55709        0.00071
C         -2.87369       -2.53810       -0.18396
H         -2.94261       -3.43507       -0.79102
H         -4.99835       -1.76136        0.05118
H         -4.07745        0.62980        0.27816
C         -1.13220        0.68391        0.11560
C         -1.64170        1.98180        0.50985
N         -2.06673        2.99106        0.83923
C          0.24902        0.31658       -0.01910
H          1.69918       -2.83262       -0.01373
H          4.49717        0.25989        0.30137
H          3.23294        2.09962       -0.09996
