32
Coordinates from ORCA-job ./opt_b97-3c_parallel
N         -6.12029       -0.79955       -0.03446
C         -5.07307       -1.25904       -0.05421
C         -3.71351       -0.85514        0.12328
C         -2.50009       -1.61568        0.04569
C         -1.30926       -0.90980        0.00944
C         -1.38482        0.51806        0.05289
C         -2.80301        0.26187        0.09082
N         -3.42134        1.48176        0.11881
H         -4.42918        1.51684        0.00671
H         -2.88402        2.30105       -0.14210
C         -0.13276        1.22380        0.01009
N         -0.38573        2.53784        0.29712
H          0.39058        3.09173        0.64306
H         -1.30663        2.76613        0.65494
C          1.12703        0.59606       -0.11725
C          2.32883        1.35009       -0.23425
N          2.30450        2.70093       -0.46019
H          3.15672        3.14742       -0.77919
H          1.42505        3.10786       -0.76096
C          3.62134        0.81332       -0.19673
C          3.93490       -0.56747        0.05723
N          3.40662       -1.53246       -0.01501
C          2.32617       -1.59743       -0.23425
C          1.11768       -0.81980       -0.13514
C         -0.07521       -1.54755       -0.07236
H         -0.03917       -2.63504       -0.09930
H          2.45902       -2.66409       -0.08780
N          5.16286       -0.96496        0.50743
H          5.38717       -1.95202        0.56131
H          5.92198       -0.29637        0.56208
H          4.49242        1.45227       -0.32193
H         -2.50393       -2.70273        0.00900
