27
Coordinates from ORCA-job ./opt_b97-3c_parallel
N         -1.08370       -3.92499        0.03731
C         -1.28798       -2.80005        0.01958
C         -1.57373       -1.37614       -0.00186
C         -2.94480       -1.12058       -0.02797
C         -3.62931        0.08218       -0.04562
C         -3.11369        1.36735       -0.04480
N         -4.03108        2.38106       -0.05619
H         -3.71768        3.32703        0.13133
H         -5.00478        2.15869        0.12074
C         -1.77543        1.74088       -0.03527
C         -0.61415        0.96062       -0.01473
C          0.56253        1.73101       -0.01067
C          1.77499        1.07126        0.01642
C          1.86494       -0.27788        0.04109
N          3.16107       -0.65910        0.07203
C          3.80176        0.26820        0.07014
N          5.16378        0.21271        0.10715
H          5.62991       -0.68497        0.03424
H          5.71463        1.05433       -0.01667
C          3.10430        1.53252        0.03245
H          3.51510        2.53695        0.02848
N          0.75017       -1.02911        0.03380
C         -0.49665       -0.45966        0.00531
H          0.54316        2.81855       -0.02625
H         -1.61851        2.81880       -0.04391
H         -4.71427       -0.00641       -0.06106
H         -3.59757       -1.99292       -0.03260
