28
Coordinates from ORCA-job ./opt_b97-3c_parallel
N          6.48038       -0.13473       -0.01802
C          5.33779       -0.13019       -0.01471
C          3.89733       -0.10844       -0.00993
C          3.28969       -1.40427        0.02657
N          2.20798       -1.56270        0.05297
C          0.98383       -1.02137        0.05256
C         -0.09338       -1.90532        0.10444
C         -1.39627       -1.43197        0.10193
C         -2.52222       -2.31379        0.14264
C         -3.31544       -1.11411        0.02279
N         -4.57462       -1.63679       -0.10143
H         -5.36899       -1.00811       -0.03981
H         -4.72440       -2.61818        0.10515
C         -3.03407        0.30449        0.03819
C         -4.01090        1.31584        0.30443
N         -4.81019        2.05419       -0.04505
C         -1.64491       -0.07653        0.04397
C         -0.57920        0.83532       -0.00836
C         -0.89948        2.24604       -0.07434
N         -1.14067        3.36236       -0.12074
C          0.76182        0.37164       -0.00044
C          1.82145        1.31177       -0.04309
C          3.20788        1.10462       -0.04354
H          3.81818        2.00491       -0.07396
H          1.57084        2.36706       -0.07692
H         -2.63772       -3.21264       -0.45741
H          0.08688       -2.97818        0.14459
H          3.76433       -2.37794       -0.00233
