31
Coordinates from ORCA-job ./opt_b97-3c_parallel
N         -3.94116       -3.38729       -0.02896
C         -3.28153       -2.45338       -0.01792
C         -2.45557       -1.26082       -0.00834
C         -1.08902       -1.54759       -0.01171
C          0.02610       -0.70876       -0.00445
C          1.25766       -1.39211       -0.00692
C          2.44472       -0.67180       -0.00074
C          2.44449        0.66924       -0.00076
C          3.79156        1.12965       -0.00932
N          4.38182        2.35824       -0.04187
H          3.81644        3.17464       -0.24480
H          5.38133        2.42453       -0.19772
N          3.88551       -0.00097       -0.00111
C          3.79231       -1.13158        0.00672
N          4.38304       -2.35988        0.03741
H          3.81860       -3.17636        0.24250
H          5.38277       -2.42557        0.19193
C          1.25702        1.38851        0.00695
C          0.02548        0.70475        0.00630
C         -1.08998        1.54254        0.01488
C         -2.45604        1.25514        0.01399
C         -3.28326        2.44777        0.02442
N         -3.94368        3.38058        0.02945
C         -3.08682       -0.00253        0.00403
N         -4.46775       -0.00294        0.00781
H         -4.97878        0.87359        0.00742
H         -4.97919       -0.87918       -0.00643
H         -0.85713        2.60756        0.02302
H          1.30297        2.47537        0.01391
H          1.30457       -2.47867       -0.01423
H         -0.85605       -2.61214       -0.02215
