32
Coordinates from ORCA-job ./opt_b97-3c_parallel
N          5.09426        2.15722        0.06255
C          4.17647        1.47443        0.03038
C          3.00889        0.62870       -0.00081
C          3.17169       -0.80726        0.00114
N          2.50151       -1.68363       -0.04239
C          1.39873       -1.68990        0.04033
C          0.29128       -0.76391        0.02827
C          0.50198        0.62155       -0.01376
C          1.75727        1.25063       -0.02226
H          1.76205        2.33908       -0.03297
C         -0.60740        1.46320       -0.01812
C         -1.97251        1.00656        0.00109
C         -2.19657       -0.41328        0.02790
C         -3.61274       -0.65625        0.00189
N         -4.41453       -1.74998       -0.16191
H         -3.99827       -2.59217       -0.54550
H         -5.40671       -1.60629       -0.30535
C         -4.19141        0.65843        0.04043
C         -3.21915        1.71337        0.00240
N         -3.36280        3.07086        0.02105
H         -2.54429        3.64372        0.19359
H         -4.27285        3.46166        0.23942
H         -5.26148        0.84095        0.03887
C         -1.01938       -1.25432        0.07723
N         -1.30032       -2.58516        0.22863
H         -0.56345       -3.19134        0.57019
H         -2.25375       -2.83340        0.47074
H         -0.49755        2.54465       -0.04085
H          1.41732       -2.72543       -0.28198
N          4.39235       -1.42973        0.03078
H          4.46128       -2.42428       -0.14953
H          5.23767       -0.87250       -0.02756
