30
Coordinates from ORCA-job ./opt_b97-3c_parallel
N          5.72576        0.56562        0.35163
C          4.60172        0.67473        0.17516
C          3.23216        0.29154        0.03976
C          2.30003        1.36994        0.20292
C          1.03528        0.69197        0.14662
C          1.24748       -0.71671       -0.05212
C          2.64979       -1.01101       -0.11961
N          3.20528       -2.24275       -0.31144
H          2.61745       -3.06379       -0.22178
H          4.20494       -2.35033       -0.17471
C          0.07891       -1.55880       -0.10851
C         -1.22996       -1.08525       -0.04960
C         -2.25035       -2.05171       -0.06046
C         -3.61202       -1.80573        0.12766
C         -4.16214       -0.50340        0.39296
N         -3.80320        0.52648        0.20822
C         -2.77519        0.85657       -0.02754
N         -3.12272        1.82618       -0.92971
H         -2.39278        2.38862       -1.35100
H         -4.06666        2.19650       -0.93038
C         -1.44022        0.29867        0.04265
C         -0.33457        1.14816        0.18023
N         -0.45482        2.49755        0.37607
H          0.36430        3.01682        0.66972
H         -1.36473        2.85807        0.64385
H         -5.16535       -0.24658        0.71180
H         -4.31911       -2.63178        0.14234
H         -1.96339       -3.09449       -0.17845
H          0.29056       -2.62349       -0.18157
H          2.45333        2.41092        0.47713
