28
Coordinates from ORCA-job ./opt_b97-3c_parallel
N          5.84899        0.40589       -0.13455
C          4.85320        0.87410        0.17477
C          3.47587        0.50758        0.08655
C          2.34074        1.37894        0.16742
C          1.08620        0.79966        0.07905
C          1.02325       -0.62302       -0.09235
C          2.45680       -0.49250       -0.10281
N          2.84495       -1.76993       -0.39641
H          3.81526       -1.93734       -0.64053
H          2.14774       -2.42692       -0.72862
C         -0.28724       -1.21059       -0.12005
C         -1.44278       -0.43051       -0.03991
C         -2.71839       -1.10702       -0.03363
N         -3.77022       -0.87320       -0.27373
C         -4.22300        0.13289       -0.34239
C         -3.78540        1.47458       -0.06623
C         -2.44779        1.84145        0.09721
C         -1.34368        0.97214        0.06257
C         -0.07754        1.56447        0.14028
H          0.00731        2.64465        0.24409
H         -2.25593        2.90275        0.23630
H         -4.56732        2.22888       -0.02908
H         -5.17689       -0.19883       -0.73562
N         -2.94948       -2.26219        0.66264
H         -2.18283       -2.75699        1.10352
H         -3.87033       -2.68590        0.66293
H         -0.34440       -2.29308       -0.20212
H          2.44817        2.45375        0.29508
