32
Coordinates from ORCA-job ./opt_b97-3c_parallel
N         -4.80486       -2.44111       -0.24962
C         -3.95771       -1.67698       -0.17537
C         -2.87159       -0.72092       -0.08057
C         -3.17470        0.64100       -0.08514
C         -2.27664        1.68888        0.05798
C         -0.88155        1.71510        0.12930
N         -0.45790        2.99468        0.38539
H         -1.14715        3.68066        0.67182
H          0.48911        3.11566        0.72968
C          0.05057        0.64147        0.03447
C         -0.32702       -0.73690        0.06308
C         -1.61104       -1.29671        0.03055
H         -1.64125       -2.38606        0.05479
C          0.66099       -1.73940        0.11497
C          1.99933       -1.39918        0.10559
C          2.37843       -0.12227       -0.00368
C          3.80402       -0.09029       -0.07844
N          4.95629        0.63494       -0.15569
H          5.84659        0.17208       -0.01440
H          4.91853        1.63994       -0.02776
N          3.56910       -1.19453        0.00656
C          3.14822       -2.24174        0.10559
H          3.22104       -3.29116        0.36287
C          1.45555        0.91911       -0.07065
N          2.00755        2.14799       -0.33406
H          1.39145        2.86779       -0.69597
H          2.97392        2.16919       -0.64000
H          0.40496       -2.79614        0.15242
H         -2.75534        2.66766        0.11371
N         -4.48845        1.03043       -0.18662
H         -5.21711        0.32702       -0.12391
H         -4.73357        1.99742       -0.00563
