31
Coordinates from ORCA-job ./opt_b97-3c_parallel
N         -4.46617       -3.26832        0.33961
C         -3.73488       -2.39849        0.22122
C         -2.81269       -1.29640        0.09571
C         -3.38540       -0.03934       -0.03453
C         -2.75054        1.19049       -0.12933
C         -3.61807        2.32736       -0.32584
N         -4.30025        3.22725       -0.50135
C         -1.38907        1.47029       -0.03723
C         -0.27716        0.61404        0.06028
C         -0.32731       -0.80758        0.03089
C         -1.46051       -1.62426        0.07755
H         -1.26527       -2.69585        0.12165
C          0.87490       -1.53848       -0.01869
C          2.08887       -0.87166       -0.03732
C          2.14665        0.46532        0.05992
C          3.52021        0.85291        0.06523
N          4.23680        2.01285        0.00018
H          5.23550        1.96960       -0.16246
H          3.75598        2.86361       -0.27398
N          3.56290       -0.27944        0.03439
C          3.41113       -1.39613       -0.08720
N          3.96320       -2.63165       -0.25518
H          4.96152       -2.71483       -0.41039
H          3.37381       -3.41067       -0.52631
C          0.99192        1.24129        0.15277
N          1.15129        2.58401        0.38282
H          0.36010        3.08230        0.77512
H          2.06897        2.88676        0.69265
H          0.87814       -2.62581       -0.05276
H         -1.18011        2.53480       -0.09778
H         -4.47516       -0.01581       -0.07003
