31
Coordinates from ORCA-job ./opt_b97-3c_parallel
N          6.07829        0.56061       -0.11799
C          4.94214        0.43417       -0.12151
C          3.51241        0.27466       -0.11096
C          2.59066        1.28448       -0.12920
C          1.34775        0.68133       -0.09695
C          1.38283       -0.75514       -0.05733
C          2.82660       -0.92433       -0.06735
H          3.36912       -1.86627       -0.03860
C          0.06652       -1.32229       -0.04092
N          0.34999       -2.64047        0.20917
H         -0.39627       -3.21734        0.58306
H          1.30074       -2.88660        0.45994
C         -1.18167       -0.63711       -0.05177
C         -2.36990       -1.42090       -0.09910
N         -2.31683       -2.76002       -0.39141
H         -1.45942       -3.11508       -0.80178
H         -3.17998       -3.22785       -0.64385
C         -3.69262       -1.02727        0.08037
C         -4.21920        0.22933        0.28002
C         -3.55998        1.43704        0.23208
C         -2.20730        1.70020        0.04398
N         -1.98823        3.05446       -0.02642
H         -2.79196        3.66359       -0.13172
H         -1.10593        3.38102       -0.40226
C         -1.11762        0.79106       -0.03064
C          0.16240        1.39739       -0.07419
H          0.29001        2.47474       -0.07200
H         -4.21603        2.29974        0.34300
H         -5.29510        0.27830        0.43066
H         -4.44354       -1.81665        0.06593
H          2.79893        2.35193       -0.15463
