30
Coordinates from ORCA-job ./opt_b97-3c_parallel
N         -1.30850       -3.74584        0.03003
C         -1.55431       -2.63005        0.01200
C         -1.81170       -1.20738       -0.00548
C         -3.18350       -0.96259       -0.01485
C         -3.87532        0.31174       -0.02437
C         -3.28406        1.55556       -0.01688
N         -3.96746        2.42581       -0.01150
H         -4.97707        2.29415        0.04984
H         -3.81080        3.42784        0.08710
C         -1.90108        1.94725       -0.01462
C         -0.76761        1.15980       -0.01591
N          0.33919        1.95782       -0.01579
C          1.59451        1.37506       -0.01002
C          1.69933       -0.02897       -0.00824
C          3.10116       -0.32648       -0.00354
C          3.81964       -1.55824        0.00141
N          4.43108       -2.52236        0.00600
C          3.77405        0.94749       -0.00074
N          4.80394        1.35803        0.00455
H          5.30349        2.24929        0.01313
H          5.53546        0.64302        0.01189
N          2.83839        1.97207       -0.00559
C          0.60357       -0.86265       -0.01094
C         -0.71912       -0.24263       -0.01205
H          0.83600       -1.92511       -0.01387
H         -1.74967        3.02958       -0.01315
H         -4.97524        0.32266       -0.03337
N         -4.05396       -1.65838       -0.01364
H         -3.79712       -2.64495       -0.03415
H         -5.06926       -1.63711        0.07698
