29
Coordinates from ORCA-job ./opt_b97-3c_parallel
N         -5.24719       -2.31070        0.00654
C         -4.36951       -1.57850        0.00576
C         -3.24986       -0.66746        0.00504
C         -3.49598        0.75723        0.00288
N         -2.93186        1.70539       -0.00927
C         -1.82922        1.76085       -0.00706
C         -0.66162        0.92008       -0.00266
C          0.58136        1.55263       -0.00421
C          1.80616        0.80144       -0.00017
C          1.68364       -0.62768       -0.00407
C          2.85310       -1.36879       -0.01312
C          4.09013       -0.64478       -0.02040
C          5.40766       -1.19491       -0.04544
N          6.48470       -0.85978        0.13952
C          3.21360        0.49826       -0.00093
N          3.80853        1.72889        0.01619
H          4.80749        1.78318        0.18586
H          3.24221        2.54416        0.22229
H          2.82163       -2.45598       -0.01695
C          0.43054       -1.23974       -0.00044
C         -0.74940       -0.48575        0.00132
C         -1.95750       -1.20599        0.00427
H         -1.88759       -2.29212        0.00616
H          0.37660       -2.32685       -0.00103
H          0.65547        2.63722       -0.00881
H         -1.88391        2.84364       -0.02758
N         -4.73724        1.33353        0.04535
H         -5.56952        0.75630       -0.00652
H         -4.83878        2.33968       -0.02968
