31
Coordinates from ORCA-job ./opt_b97-3c_parallel
N         -5.44727       -2.30984       -0.05320
C         -4.57035       -1.57676       -0.03854
C         -3.45159       -0.66487       -0.01988
C         -3.69715        0.75960       -0.00241
N         -3.10926        1.69392        0.00351
C         -2.00678        1.76166        0.00609
C         -0.84843        0.90675        0.00159
C          0.40830        1.50752        0.00503
C          1.64738        0.76618       -0.00151
C          1.54829       -0.67041        0.00243
C          2.85172       -1.27238        0.00833
N          3.06083       -2.62314        0.02792
H          2.28177       -3.23691        0.23705
H          4.00028       -2.96434        0.20329
C          3.68674       -0.10243       -0.00256
C          5.10565       -0.27922       -0.04733
N          6.23676       -0.42278        0.02601
C          3.02445        1.17351       -0.00672
N          3.56453        2.42860       -0.02755
H          2.96629        3.21748       -0.24208
H          4.56074        2.52141       -0.20077
C          0.22277       -1.23976       -0.00725
C         -0.95244       -0.49000       -0.00762
C         -2.16179       -1.20599       -0.01929
H         -2.09223       -2.29266       -0.02956
H          0.19660       -2.32698       -0.01743
H          0.50445        2.59066        0.01426
H         -2.05075        2.84460        0.03638
N         -4.94288        1.32628        0.04280
H         -5.05442        2.33338        0.01559
H         -5.77153        0.74208        0.00722
