32
Coordinates from ORCA-job ./opt_b97-3c_parallel
N         -2.17203       -4.21403       -0.04198
C         -2.26527       -3.07586       -0.02518
C         -2.40812       -1.63177       -0.00476
C         -3.76011       -1.29099       -0.00363
C         -4.36635       -0.05159        0.01803
C         -3.75926        1.18639        0.04160
N         -4.60639        2.26121        0.06935
H         -4.22639        3.19182       -0.06893
H         -5.59535        2.11677       -0.10302
C         -2.39919        1.47163        0.03957
C         -1.25388        0.64125        0.01785
C         -1.26150       -0.78702        0.00637
C         -0.00415       -1.44031        0.00420
C          1.20084       -0.75477        0.00688
C          1.21285        0.61190        0.00729
C          2.52562        1.20821        0.00548
C          3.26713        2.42964        0.09763
N          3.85951        3.39898       -0.02617
C          3.11763       -0.11479       -0.00003
N          4.48788       -0.20701       -0.02483
H          4.94801       -1.11104        0.00508
H          5.05365        0.63691       -0.00218
C          2.47760       -1.41279        0.00461
C          2.86771       -2.78817        0.01593
N          3.42453       -3.78608        0.01622
C          0.00530        1.31932        0.01040
C          0.12002        2.76564       -0.00176
N          0.19480        3.90543       -0.01373
H          0.08623       -2.52189        0.00115
H         -2.24795        2.54449        0.06255
H         -5.45541       -0.06703        0.01976
H         -4.47545       -2.11362       -0.01813
