32
Coordinates from ORCA-job ./opt_b97-3c_parallel
N          4.05707        3.23777        0.01055
C          3.34452        2.34391        0.00150
C          2.42795        1.21851       -0.00008
C          1.08901        1.60797       -0.01598
C         -0.09276        0.86293        0.01436
C         -1.25339        1.65568        0.00673
C         -2.53124        1.11068        0.05731
C         -2.72324       -0.30283        0.12358
C         -4.12320        0.03645        0.05649
N         -4.85782       -1.10491       -0.09998
H         -5.84018       -1.02356       -0.33715
H         -4.37318       -1.95578       -0.36400
C         -4.92341        1.23250        0.11139
C         -3.66279        1.90775        0.05144
H         -3.58234        2.99135        0.00151
H         -5.78218        1.43798       -0.51978
C         -1.51548       -1.07895        0.13978
N         -1.84557       -2.39993        0.28696
H         -1.11980       -3.04726        0.57210
H         -2.79742       -2.61846        0.56077
C         -0.21370       -0.53947        0.06695
C          0.84185       -1.46057        0.04478
C          2.22589       -1.28399        0.00544
C          2.95389       -2.53953       -0.03058
N          3.51744       -3.53354       -0.07078
C          2.95823       -0.08343        0.00668
N          4.33404       -0.19412        0.01293
H          4.90158        0.63613       -0.12302
H          4.76115       -1.10336       -0.13018
H          0.54956       -2.50798        0.04957
H         -1.17144        2.74015       -0.03796
H          0.94563        2.68827       -0.04130
