32
Coordinates from ORCA-job ./opt_b97-3c_parallel
N          6.32922        0.73083       -0.35575
C          5.19920        0.57095       -0.29706
C          3.77828        0.36299       -0.20860
C          2.82059        1.33893       -0.24317
C          1.60622        0.69367       -0.11640
C          1.69582       -0.74441        0.01020
C          3.14261       -0.85638       -0.06312
H          3.72150       -1.77543       -0.01082
C          0.43191       -1.41646        0.15436
N          0.67569       -2.76083        0.06874
H         -0.10547       -3.36414       -0.16613
H          1.59848       -3.05870       -0.22676
C         -0.82360       -0.76446        0.19881
C         -2.03700       -1.49040        0.36238
N         -2.04260       -2.79857        0.76822
H         -1.18775       -3.17010        1.16984
H         -2.91910       -3.20048        1.08156
C         -3.31419       -0.95470        0.15669
C         -3.57143        0.36533       -0.35580
N         -3.05544        1.32917       -0.19503
C         -2.01478        1.43783        0.16030
N         -2.13332        2.55752        0.93783
H         -1.30857        2.97193        1.35633
H         -2.97841        3.11545        0.88752
C         -0.80797        0.64804        0.08098
C          0.38698        1.35467       -0.08602
H          0.36790        2.43861       -0.17729
N         -4.57251        0.62693       -1.24670
H         -4.77045        1.58338       -1.51824
H         -5.24177       -0.09456       -1.48922
H         -4.20632       -1.55344        0.32890
H          2.98574        2.40954       -0.34023
