29
Coordinates from ORCA-job ./opt_b97-3c_parallel
N          5.80827        0.65257        0.23193
C          4.73525        1.03273        0.12638
C          3.37630        0.60937        0.00812
C          2.13540        1.32705        0.04383
C          0.97146        0.58067       -0.02934
C          1.11888       -0.83412       -0.13383
C          2.53026       -0.55211       -0.10335
N          3.05088       -1.81024       -0.22862
H          4.04236       -1.94561       -0.06150
H          2.43382       -2.60823       -0.12557
C         -0.10990       -1.56459       -0.06831
C         -1.37986       -0.97563       -0.01397
C         -2.40116       -1.92895        0.04412
C         -3.77318       -1.76645        0.13397
C         -4.49400       -0.58879        0.15040
C         -4.01361        0.70664        0.06590
C         -2.70191        1.17587       -0.01464
N         -2.66128        2.54424       -0.11455
H         -1.80700        2.97405       -0.44852
H         -3.52983        3.03253       -0.30302
C         -1.49267        0.43610       -0.01611
C         -0.28667        1.17741       -0.00344
H         -0.29278        2.26142        0.05447
H         -4.79715        1.46340        0.06996
H         -5.57405       -0.69338        0.22268
H         -4.35709       -2.68203        0.19324
H         -2.09389       -2.97297        0.03678
H          0.04203       -2.64102       -0.07313
H          2.09825        2.41049        0.13653
