30
Coordinates from ORCA-job ./opt_b97-3c_parallel
N          4.13206        2.94021       -0.10004
C          3.44382        2.02751       -0.06581
C          2.55783        0.88078       -0.02927
C          3.11834       -0.40095       -0.03569
C          2.43878       -1.61280        0.01383
C          1.07406       -1.90045        0.05109
N          0.84175       -3.25231        0.11632
H         -0.08185       -3.57159        0.38407
H          1.62399       -3.86503        0.31839
C         -0.02303       -1.00938        0.03236
C         -1.31771       -1.58992        0.02259
C         -2.44981       -0.78829        0.01804
C         -2.35825        0.54596        0.02832
C         -3.66782        1.10269        0.02776
N         -4.25348        2.33297        0.05690
H         -5.26062        2.42121       -0.01635
H         -3.68528        3.17134        0.01518
N         -3.83321       -0.01888        0.00820
C         -3.82590       -1.15381        0.00197
H         -4.30278       -1.97292       -0.52263
C         -1.12563        1.17621        0.02994
C          0.05837        0.41169        0.02364
C          1.20599        1.21100        0.00673
H          1.01899        2.28492        0.00932
H         -1.10308        2.26379        0.03081
H         -1.48367       -2.66258        0.00986
H          3.08960       -2.48768        0.02263
N          4.48573       -0.52516       -0.08346
H          5.04129        0.29777       -0.29369
H          4.88727       -1.43438       -0.28317
