23
Coordinates from ORCA-job ./opt_b97-3c_parallel
N          1.57485        3.09610       -1.84196
C          1.44875        2.29633       -1.03510
C          1.30164        1.32391        0.00474
C          2.47888        1.19998        0.68452
C          3.13647        0.04694        0.63517
C          2.58505       -0.99221       -0.05587
N          1.48678       -1.61939       -0.50163
C          0.31165       -0.98105       -0.26833
N         -0.81810       -1.72523       -0.36647
C         -2.00562       -1.14180       -0.10174
C         -2.09313        0.18549        0.24942
N         -3.36971        0.53322        0.46867
C         -4.13657       -0.53586        0.27148
C         -3.39596       -1.58427       -0.07501
H         -3.85176       -2.54995       -0.27672
H         -5.18816       -0.26555        0.44845
N         -1.00208        0.97190        0.32267
C          0.19588        0.39802        0.05553
N          3.16476       -1.84088       -0.45433
H          3.03259       -2.84790       -0.37661
H          4.03840       -1.69511       -0.95568
H          4.07966       -0.07213        1.16555
H          2.88185        2.03977        1.24638
