28
Coordinates from ORCA-job ./opt_b97-3c_parallel
N         -6.02202       -0.28933        0.01620
C         -4.88007       -0.28422        0.00005
C         -3.44199       -0.25965       -0.02194
C         -2.61861       -1.33990        0.14448
C         -1.32610       -0.86155        0.05405
C         -1.23176        0.56479       -0.18437
C         -2.65249        0.85916       -0.21519
H         -3.10746        1.83441       -0.37048
C          0.10540        1.08932       -0.20185
N          0.15361        2.44046       -0.40978
H         -0.68947        2.91110       -0.71820
H          1.04631        2.85088       -0.66326
C          1.23985        0.27603       -0.04836
C          2.55045        0.88826        0.00582
N          3.59288        0.60488       -0.22577
C          3.99581       -0.41653       -0.35615
C          3.50483       -1.73033       -0.03764
C          2.15440       -2.03391        0.14710
C          1.08645       -1.12142        0.08748
C         -0.19930       -1.66890        0.16278
H         -0.32930       -2.74033        0.30118
H          1.91898       -3.08335        0.30970
H          4.25298       -2.51779        0.00782
H          4.98383       -0.12836       -0.69518
N          2.86395        1.90049        0.87386
H          3.78737        2.31714        0.84494
H          2.11280        2.44111        1.28877
H         -2.92419       -2.36931        0.31722
