34
Coordinates from ORCA-job ./opt_b97-3c_parallel
N         -5.01612       -2.24256       -0.10940
C         -4.19857       -1.44635       -0.03772
C         -3.15249       -0.44435        0.03611
C         -3.53177        0.89941        0.11768
C         -2.68144        1.99177        0.16176
C         -1.29741        2.04830        0.11665
C         -0.32401        1.03575        0.05610
C          1.02435        1.48645        0.00832
N          1.38763        2.80924       -0.04427
H          2.34942        3.02598       -0.28162
H          0.68115        3.49492       -0.28392
C          2.05580        0.55650       -0.00471
C          1.81399       -0.76061        0.02736
C          3.06220       -1.45392        0.00821
N          3.37200       -0.36535       -0.01625
C          3.46836        0.76184       -0.03841
N          4.53664        1.60974       -0.06181
H          4.39105        2.59996        0.09646
H          5.47049        1.23900        0.07352
N          3.75512       -2.62906       -0.01128
H          3.25742       -3.49827       -0.16629
H          4.75286       -2.61558       -0.18914
C          0.51955       -1.26490        0.06055
N          0.39957       -2.63187        0.11688
H          1.23388       -3.17090        0.32212
H         -0.49112       -3.02851        0.39343
C         -0.58503       -0.36698        0.05400
C         -1.85935       -0.97091        0.02673
H         -1.87485       -2.05483       -0.02517
H         -0.95919        3.07813        0.15193
H         -3.16330        2.96595        0.22714
N         -4.86569        1.22174        0.15835
H         -5.55182        0.49893       -0.03335
H         -5.14368        2.19061        0.05092
