27
Coordinates from ORCA-job ./opt_b97-3c_parallel
N         -0.98681       -3.34967       -1.19689
C         -1.30647       -2.84006       -0.22377
C         -1.63629       -1.44433       -0.09220
C         -3.02356       -1.50414       -0.02049
C         -3.94326       -0.42130        0.13011
C         -3.62730        0.91434        0.14240
N         -4.52388        1.55174        0.25381
H         -5.41500        1.13904        0.52843
H         -4.62550        2.55578        0.39578
C         -2.43342        1.58286        0.01574
C         -1.14057        1.11480       -0.07196
N         -0.20152        2.07844       -0.18928
C          1.12914        1.73572       -0.21329
N          2.00444        2.77639       -0.36862
C          3.22836        2.19062       -0.23133
C          3.04894        0.79699        0.03319
C          4.19642       -0.01340        0.28770
N          5.12641       -0.65102        0.46619
C          1.64117        0.41951        0.00033
C          0.66770       -0.65097       -0.02212
C          1.56426       -1.76752        0.06220
N          1.71301       -2.27282        1.07814
C         -0.74556       -0.29204       -0.05838
H          4.19211        2.72175       -0.27700
H         -2.51137        2.67199        0.00736
H         -4.98151       -0.74547        0.20934
H         -3.56022       -2.45555       -0.04621
