28
Coordinates from ORCA-job ./opt_b97-3c_parallel
N         -6.11848       -0.77473        0.03870
C         -4.98883       -0.60641        0.04941
C         -3.56718       -0.38435        0.05052
C         -2.60319       -1.35510        0.04027
C         -1.38963       -0.69587        0.02703
C         -1.48881        0.74967        0.03690
C         -2.93756        0.84715        0.04721
H         -3.52252        1.76381        0.04723
C         -0.23260        1.44973       -0.00733
N         -0.40582        2.80615        0.03400
H         -1.32213        3.16555        0.27710
H          0.39836        3.38843        0.23846
C          1.01296        0.79788       -0.06054
C          2.18292        1.58294       -0.12986
C          3.49728        1.11230       -0.16291
C          3.85867       -0.27761       -0.08134
N          3.34905       -1.25555       -0.08461
C          2.25088       -1.36906       -0.09734
C          1.02580       -0.61400       -0.05076
C         -0.16246       -1.34589       -0.00787
H         -0.12988       -2.43338       -0.01218
H          2.39745       -2.43195        0.05951
N          5.13997       -0.69026        0.14795
H          5.36515       -1.67882        0.13592
H          5.90105       -0.02118        0.13308
H          4.31910        1.82100       -0.23319
H          2.08317        2.66359       -0.17058
H         -2.76331       -2.43076        0.03110
