26
Coordinates from ORCA-job ./opt_b97-3c_parallel
N         -3.08980       -3.63926        0.06711
C         -2.79599       -2.53532        0.01814
C         -2.44787       -1.12957       -0.04325
C         -3.57619       -0.29642       -0.16246
C         -3.62733        1.09458       -0.22604
C         -2.49837        1.96226       -0.11677
N         -1.46670        1.61400       -0.10100
C         -0.61816        0.57754       -0.05339
C          0.76434        0.83911       -0.03647
C          1.30719        2.17748       -0.08684
N          1.75009        3.23033       -0.12495
C          1.61693       -0.25035        0.04015
C          1.15786       -1.52728        0.09755
N          2.18559       -2.39686        0.17193
C          3.12338       -1.77329        0.16356
C          3.02593       -0.33337        0.08404
C          4.28002        0.35008        0.08751
N          4.91924        1.04990       -0.55007
H          4.00127       -2.40619        0.22141
N         -0.16381       -1.78480        0.07570
C         -1.07331       -0.76645       -0.00320
N         -2.57737        3.24703        0.33025
H         -3.47512        3.71600        0.37419
H         -1.73743        3.81263        0.38877
H         -4.58838        1.59322       -0.33103
H         -4.54661       -0.78756       -0.21510
