32
Coordinates from ORCA-job ./opt_b97-3c_parallel
N          5.85860        0.72067        0.00762
C          4.76068        0.81334       -0.29590
C          3.39659        0.38784       -0.24535
C          2.49638        1.49382       -0.07656
C          1.19916        0.87817       -0.09276
C          1.34769       -0.55161       -0.07755
C          2.74825       -0.87595       -0.02737
N          3.44290       -2.02225        0.23888
H          2.94028       -2.80504        0.64265
H          4.43805       -1.95084        0.42256
C          0.13223       -1.33755       -0.08487
N          0.39273       -2.67840       -0.18409
H         -0.36778       -3.29746       -0.43976
H          1.33286       -2.95932       -0.44189
C         -1.16336       -0.80187       -0.02695
C         -2.26379       -1.68552        0.01208
C         -3.61464       -1.33339        0.03735
C         -4.09635        0.02090       -0.00244
N         -3.66850        1.03693        0.02591
C         -2.58217        1.23725        0.03801
C         -1.28972        0.59703       -0.01821
C         -0.14669        1.39985       -0.07853
N         -0.21637        2.76669       -0.11508
H          0.62204        3.28794       -0.34516
H         -1.11178        3.19828       -0.31645
H         -2.84460        2.19324        0.47754
N         -5.42199        0.32403       -0.12524
H         -5.73169        1.28603       -0.04545
H         -6.11793       -0.41159       -0.08060
H         -4.37114       -2.11377        0.07489
H         -2.07549       -2.75493        0.02968
H          2.66839        2.56701       -0.03733
