29
Coordinates from ORCA-job ./opt_b97-3c_parallel
N         -6.33134       -1.28124        0.18275
C         -5.23036       -0.98246        0.10887
C         -3.84436       -0.60502        0.03034
C         -2.77816       -1.46203        0.03576
C         -1.64452       -0.67686       -0.04588
C         -1.90744        0.74510       -0.10752
C         -3.35725        0.68641       -0.05608
H         -4.04068        1.53173       -0.07701
C         -0.72776        1.56270       -0.11618
N         -0.99525        2.90252       -0.18292
H         -1.93976        3.19272       -0.41073
H         -0.23825        3.53330       -0.42195
C          0.56990        1.03115       -0.09562
C          1.67172        1.96291       -0.10528
N          2.74634        2.06178        0.12188
C          3.38046        1.16174        0.19431
C          3.27560       -0.25537       -0.02749
C          4.58641       -0.86006       -0.08576
N          5.62044       -1.34471       -0.14398
C          2.06648       -0.96936       -0.12076
N          2.17071       -2.33255       -0.26074
H          3.08364       -2.72374       -0.46968
H          1.35757       -2.84845       -0.57610
C          0.77927       -0.36890       -0.08951
C         -0.35628       -1.20106       -0.05980
H         -0.26240       -2.28276       -0.01969
H          4.11202        1.69475        0.79289
H          1.67502        3.00807        0.18797
H         -2.81801       -2.54717        0.10001
