29
Coordinates from ORCA-job ./opt_b97-3c_parallel
N          6.26403        1.23052       -0.00396
C          5.14974        0.97708        0.00611
C          3.74296        0.65620        0.00438
C          2.86736        1.72557        0.00588
C          1.48211        1.72308        0.00484
C          0.54826        0.66669        0.00200
C          0.86212       -0.72680       -0.00096
N         -0.15316       -1.64054       -0.00589
C         -1.43289       -1.25025       -0.00586
C         -1.81420        0.05569       -0.00103
C         -3.24252        0.24943       -0.00210
C         -4.25542        1.25788       -0.01725
N         -5.10861        2.01864       -0.00021
C         -3.56250       -1.17072       -0.00342
N         -4.84897       -1.64124       -0.00317
H         -5.62385       -0.98445       -0.00327
H         -5.04030       -2.63661       -0.00693
C         -2.51839       -2.17098       -0.02013
H         -2.54622       -3.25563        0.00594
C         -0.82798        1.04390        0.00202
C         -1.27968        2.42070        0.00304
N         -1.62086        3.51132        0.00249
C          2.15850       -1.30274       -0.00023
C          2.28530       -2.75097       -0.00198
N          2.40451       -3.88738       -0.00364
C          3.41142       -0.68844        0.00177
H          4.26975       -1.36234        0.00125
H          1.11358        2.74302        0.00652
H          3.32060        2.71648        0.00828
