27
Coordinates from ORCA-job ./opt_b97-3c_parallel
N          0.78614        3.75059        0.87719
C          0.99497        2.67527        0.54947
C          1.29848        1.31227        0.16023
C          2.68430        1.16413        0.05748
C          3.45941        0.03583       -0.12990
C          3.05510       -1.28353       -0.09679
N          4.04180       -2.22108       -0.22592
H          3.77601       -3.18624       -0.38786
H          4.95516       -1.92178       -0.54963
C          1.76527       -1.75812        0.09266
C          0.53604       -1.08590        0.13296
C         -0.53239       -1.99943        0.24193
C         -1.84238       -1.57205        0.18640
C         -2.08500       -0.26312       -0.01306
C         -3.49048       -0.20505       -0.12659
C         -3.82778       -1.59603        0.07113
N         -2.96987       -2.31369        0.22326
H         -4.80047       -2.07326        0.08383
H         -4.16152        0.63168       -0.29297
C         -1.09297        0.70318       -0.11778
C         -1.57771        1.99368       -0.56281
N         -1.98280        2.99696       -0.93300
C          0.27955        0.32016        0.04819
H         -0.35633       -3.06873        0.34251
H          1.71641       -2.84449        0.15494
H          4.52659        0.21791       -0.24301
H          3.27797        2.07656        0.12125
