28
Coordinates from ORCA-job ./opt_b97-3c_parallel
N         -1.13911       -3.93990       -0.00803
C         -1.31580       -2.80987        0.00601
C         -1.56597       -1.37944        0.02066
C         -2.93002       -1.08790       -0.01166
C         -3.58217        0.13287       -0.01342
C         -3.03123        1.40320        0.00923
N         -3.91925        2.44286       -0.00285
H         -4.89772        2.25188       -0.18873
H         -3.57488        3.38325       -0.16286
C         -1.68353        1.73899        0.04582
C         -0.54354        0.92762        0.07554
C          0.65293        1.66577        0.12168
C          1.87675        1.01630        0.15954
C          1.89067       -0.35402        0.14876
N          0.76405       -1.08611        0.10196
C         -0.46642       -0.49148        0.06571
C          3.16776       -0.99701        0.18365
C          3.68055        0.35355        0.14375
N          5.04355        0.34789        0.03764
H          5.55158        1.21353        0.18326
H          5.54055       -0.52718        0.16278
C          3.13841        1.69150        0.20670
H          3.41621        2.52474       -0.43081
H          3.48629       -1.80667       -0.46575
H          0.64260        2.75365        0.12985
H         -1.49841        2.81237        0.05747
H         -4.66890        0.07449       -0.03841
H         -3.60532       -1.94244       -0.03899
