34
Coordinates from ORCA-job ./opt_b97-3c_parallel
N         -6.59904       -1.12920        0.46298
C         -5.52681       -1.42240        0.19523
C         -4.22330       -0.89213       -0.04687
C         -2.93580       -1.52241       -0.06205
C         -1.82863       -0.69728       -0.16090
C         -2.07607        0.69993       -0.25506
C         -0.88756        1.49278       -0.24177
C          0.43748        1.01357       -0.19186
C          1.43049        2.01378       -0.15839
C          2.78231        1.87679        0.12080
C          3.55697        0.74153        0.29238
N          4.85833        1.02852        0.63802
H          5.46061        0.26591        0.93104
H          5.07676        1.95927        0.97614
C          3.17610       -0.59024        0.06255
C          4.26167       -1.56513        0.13410
N          5.11615       -2.32395        0.17984
C          1.87694       -1.08409       -0.21282
N          1.82452       -2.42650       -0.53534
H          0.99586       -2.76901       -1.00771
H          2.69848       -2.90124       -0.73765
C          0.63281       -0.39297       -0.18588
C         -0.53240       -1.20344       -0.15752
H         -0.47139       -2.28471       -0.07831
H          3.32635        2.81671        0.22282
N          1.07787        3.32722       -0.35278
H          0.18659        3.51713       -0.79702
H          1.82057        4.00048       -0.50563
H         -1.19292        2.53465       -0.21580
C         -3.45679        0.32729       -0.08665
N         -4.05837        1.54907        0.03490
H         -5.02883        1.58524        0.32996
H         -3.47913        2.36526        0.19638
H         -2.82349       -2.60147        0.02069
