32
Coordinates from ORCA-job ./opt_b97-3c_parallel
N         -3.52560       -3.63657        0.34627
C         -2.95325       -2.65393        0.22645
C         -2.22294       -1.40654        0.09432
C         -0.84117       -1.58611        0.04789
C          0.20411       -0.66266        0.00562
C          1.47352       -1.24804       -0.01656
C          2.72146       -0.53564       -0.03930
C          2.64671        0.88961        0.07290
C          3.97885        1.42547        0.07224
C          4.82654        0.26990       -0.00175
C          4.09013       -0.95622       -0.12166
N          4.58316       -2.21117       -0.33036
H          5.56808       -2.31678       -0.54719
H          3.94649       -2.93632       -0.64177
H          5.91057        0.32216        0.00039
H          4.32444        2.44391        0.22955
C          1.31933        1.45639        0.10340
N          1.41346        2.81189        0.29752
H          2.32748        3.19492        0.51462
H          0.60979        3.28880        0.69095
C          0.11245        0.73503        0.01818
C         -1.06958        1.48172       -0.06631
C         -2.40815        1.08869       -0.11302
C         -3.31915        2.20627       -0.28109
N         -4.02931        3.08961       -0.43237
C         -2.94705       -0.20492        0.00496
N         -4.32337       -0.30532        0.03138
H         -4.89278        0.51683       -0.14046
H         -4.76385       -1.21936        0.03278
H         -0.94013        2.55920       -0.13643
H          1.61950       -2.32602       -0.02539
H         -0.52506       -2.62914        0.07704
