35
Coordinates from ORCA-job ./opt_b97-3c_parallel
N         -4.26276       -3.42597        0.65838
C         -3.63563       -2.49612        0.43632
C         -2.82661       -1.31754        0.17476
C         -1.48326       -1.62014       -0.01449
C         -0.35985       -0.79879       -0.15508
C         -0.34159        0.60899       -0.14614
C          0.93852        1.20019       -0.12281
C          2.20862        0.53215       -0.04906
C          2.18580       -0.88225       -0.24194
C          3.53196       -1.38166       -0.17686
C          4.30771       -0.17470       -0.21398
C          5.71514       -0.39739       -0.10797
N          6.80274       -0.23753        0.20527
C          3.55239        0.98248        0.17675
N          3.90501        2.15994        0.77179
H          3.18178        2.70992        1.22190
H          4.85471        2.25604        1.11614
H          3.82567       -2.27228       -0.72778
C          0.87281       -1.47589       -0.29675
N          1.03015       -2.82195       -0.50850
H          1.94233       -3.15528       -0.79944
H          0.22355       -3.35521       -0.81399
H          1.15421        2.26381       -0.08640
C         -1.45505        1.48582       -0.20703
N         -1.15331        2.82272       -0.38476
H         -1.90740        3.46162       -0.61538
H         -0.22295        3.07135       -0.70121
C         -2.83989        1.18398       -0.13077
C         -3.75972        2.31093       -0.28594
N         -4.47833        3.18985       -0.42314
C         -3.45439       -0.06403        0.11064
N         -4.82725       -0.07410        0.28189
H         -5.27251       -0.91551        0.63349
H         -5.31444        0.80824        0.39971
H         -1.28778       -2.68916        0.02126
