35
Coordinates from ORCA-job ./opt_b97-3c_parallel
N         -4.61213       -3.24931       -0.34154
C         -3.92043       -2.34871       -0.21008
C         -3.03480       -1.20717       -0.06654
C         -1.68582       -1.56247       -0.03100
C         -0.51502       -0.78992        0.01759
C          0.70128       -1.50100        0.07597
N          0.82226       -2.85892        0.22470
H          1.72888       -3.23426        0.47962
H          0.00434       -3.38657        0.50871
C          2.02453       -0.92581        0.05451
C          2.09755        0.49527       -0.09668
C          3.48198        0.88777       -0.12086
N          4.18545        2.06008       -0.11572
H          5.18659        2.02197        0.04527
H          3.69761        2.91576        0.12511
C          4.22746       -0.34107       -0.13859
C          5.59587       -0.75573       -0.17191
N          6.64557       -0.61762        0.25728
C          3.35874       -1.45751        0.10709
H          3.60154       -2.45196        0.47511
C          0.83525        1.19619       -0.12772
N          1.07892        2.52879       -0.34104
H          2.01184        2.79271       -0.63986
H          0.31109        3.11117       -0.65556
C         -0.44408        0.61147       -0.02720
C         -1.52758        1.50053        0.04630
C         -2.90353        1.28616        0.13017
C         -3.66138        2.51432        0.28972
N         -4.24874        3.48508        0.42928
C         -3.60340        0.07178        0.04721
N         -4.98159        0.14225        0.08139
H         -5.52635       -0.68448       -0.14098
H         -5.43341        1.04904        0.02351
H         -1.26934        2.55588        0.08302
H         -1.53843       -2.63830       -0.07926
