35
Coordinates from ORCA-job ./opt_b97-3c_parallel
N          6.41726        0.01124       -0.07844
C          5.27409        0.00279       -0.06157
C          3.83609        0.00207       -0.03425
C          3.03776        1.10478       -0.23158
C          1.65494        0.70725       -0.13421
C          1.66126       -0.70538        0.14995
C          3.04723       -1.10204        0.19352
H          3.50450       -2.07068        0.38078
C          0.36672       -1.33465        0.16071
N          0.64277       -2.62008        0.55498
H          1.56908       -2.82349        0.91270
H         -0.12795       -3.17599        0.91138
C         -0.90416       -0.71821        0.01085
C         -2.03730       -1.55698       -0.18522
N         -1.87087       -2.88507       -0.49028
H         -0.93981       -3.19625       -0.74749
H         -2.65706       -3.39052       -0.88275
C         -3.38838       -1.22341       -0.23505
C         -4.01042       -0.01172       -0.00656
N         -5.37868       -0.01128       -0.03095
H         -5.85967       -0.82265       -0.40321
H         -5.86552        0.87816       -0.04312
C         -3.39722        1.19832        0.25141
C         -2.04625        1.53423        0.23689
N         -1.88664        2.85513        0.57513
H         -2.67769        3.34653        0.97565
H         -0.95935        3.16000        0.85298
C         -0.90845        0.70365        0.03540
C          0.35743        1.33014       -0.11338
N          0.62110        2.62275       -0.49222
H         -0.15760        3.18062       -0.82752
H          1.54136        2.83771       -0.85834
H         -4.08825        2.01762        0.45316
H         -4.07333       -2.04623       -0.44313
H          3.48642        2.07447       -0.43401
