30
Coordinates from ORCA-job ./opt_b97-3c_parallel
N          6.76264        0.29146        0.00010
C          5.62619        0.16883       -0.00062
C          4.19647       -0.00552       -0.00135
C          3.44864        1.21581       -0.00227
N          2.35503        1.20505       -0.00186
C          1.17513        0.56418       -0.00086
C         -0.01130        1.32090       -0.00053
C          0.05407        2.76918       -0.00262
N          0.10942        3.91064        0.00655
C         -1.25479        0.67910        0.00225
C         -1.32063       -0.70186        0.00345
C         -2.64851       -1.26630        0.00716
C         -3.38494       -2.49611        0.04379
N         -4.08905       -3.39499       -0.00614
C         -3.16499        0.08562        0.00048
N         -4.53640        0.14357       -0.02813
H         -5.08323       -0.71126        0.00709
H         -5.01198        1.03978        0.00683
C         -2.51533        1.37853        0.00419
C         -3.11539        2.68024        0.01603
N         -3.80445        3.59175        0.00013
C         -0.14635       -1.47179        0.00048
C         -0.27285       -2.91495       -0.00108
N         -0.35619       -4.05485       -0.00153
C          1.12430       -0.84603       -0.00002
C          2.29250       -1.65301       -0.00060
C          3.64644       -1.28852       -0.00094
H          4.35468       -2.11502       -0.00037
H          2.17522       -2.73171       -0.00000
H          3.81413        2.23634       -0.00244
