33
Coordinates from ORCA-job ./opt_b97-3c_parallel
N          6.86345        0.58944       -0.25533
C          5.73160        0.47047       -0.15695
C          4.30659        0.30213       -0.04139
C          3.62458       -0.89687       -0.12020
C          2.18788       -0.73881        0.01206
C          2.14746        0.68977        0.16464
C          3.38826        1.29980        0.13554
H          3.59477        2.36477        0.21448
C          0.95572        1.39363        0.26342
C         -0.31860        0.77187        0.25233
C         -1.42887        1.65589        0.25099
N         -1.20567        2.97756        0.57496
H         -0.37670        3.20216        1.11395
H         -2.01335        3.57953        0.69975
C         -2.74348        1.36546       -0.15770
C         -3.66129        2.45476       -0.43969
N         -4.38869        3.30417       -0.67626
C         -3.33156        0.12128       -0.31500
C         -2.83912       -1.11964        0.05562
C         -3.85497       -2.15631        0.04067
N         -4.65961       -2.96839        0.01907
C         -1.51707       -1.45597        0.38421
N         -1.35305       -2.72257        0.90491
H         -2.15132       -3.33572        1.03058
H         -0.42872       -3.03867        1.18066
C         -0.35819       -0.65200        0.22865
C          0.88562       -1.32607        0.09898
N          1.11590       -2.61721       -0.30252
H          0.32617       -3.15291       -0.64753
H          2.03651       -2.85737       -0.65283
H         -4.37240        0.13186       -0.64308
H          1.07091        2.47258        0.29640
H          4.16424       -1.82785       -0.27994
