30
Coordinates from ORCA-job ./opt_b97-3c_parallel
N          3.59403        3.41380       -0.06122
C          2.93500        2.48011       -0.02995
C          2.08689        1.30246       -0.00361
C          0.72732        1.61200        0.00857
C         -0.40780        0.79824        0.00697
C         -1.61120        1.52193        0.03574
C         -2.84805        0.89384        0.02396
C         -2.97835       -0.54123       -0.05023
C         -4.42936       -0.60533       -0.02267
C         -5.03754        0.63435        0.05540
C         -4.04670        1.57722        0.08282
H         -4.18070        2.65453        0.14583
H         -6.10737        0.82469        0.09101
H         -5.03341       -1.50849       -0.05550
C         -1.71836       -1.22995       -0.06782
N         -1.97316       -2.57189       -0.16455
H         -2.91894       -2.86320       -0.38583
H         -1.21635       -3.19138       -0.43051
C         -0.44937       -0.60997       -0.02608
C          0.66008       -1.46631       -0.00878
C          2.03181       -1.20733        0.02701
C          2.83334       -2.41719        0.07071
N          3.45504       -3.37563        0.11476
C          2.69222        0.03420        0.01793
N          4.07233        0.00570        0.03495
H          4.60151        0.87065       -0.00322
H          4.56472       -0.88149        0.02897
H          0.43121       -2.52918       -0.00815
H         -1.59879        2.60946        0.07755
H          0.51993        2.68235        0.01329
