34
Coordinates from ORCA-job ./opt_b97-3c_parallel
N         -6.70658       -0.64667       -0.03706
C         -5.57612       -0.48250       -0.00377
C         -4.15296       -0.27106        0.02228
C         -3.20156       -1.25208       -0.14066
C         -1.88992       -0.65538       -0.06790
C         -2.10705        0.75289        0.16265
C         -3.53457        0.94396        0.20760
H         -4.12756        1.84291        0.35767
C         -0.92362        1.56795        0.16202
N         -1.33205        2.86967        0.30146
H         -0.63970        3.56334        0.55970
H         -2.29040        3.04063        0.58497
C          0.40907        1.11807        0.04793
C          1.36179        2.13590       -0.08252
C          2.72117        2.06809       -0.31093
C          3.56612        0.97284       -0.29331
N          4.87607        1.30137       -0.55359
H          5.60299        0.60271       -0.43493
H          5.14104        2.27296       -0.67114
C          3.22481       -0.35225        0.02591
C          4.36164       -1.25610        0.18137
N          5.25342       -1.95820        0.32179
C          1.92568       -0.90343        0.17926
N          1.91342       -2.22075        0.59034
H          2.77655       -2.63580        0.92607
H          1.03884       -2.60847        0.92909
C          0.65197       -0.27400        0.03820
C         -0.51255       -1.08121       -0.07865
N         -0.59388       -2.39348       -0.47537
H          0.24974       -2.83521       -0.82739
H         -1.48358       -2.74326       -0.81099
H          3.18932        3.03290       -0.50076
H          1.01013        3.16262       -0.10045
H         -3.50345       -2.28350       -0.30722
