31
Coordinates from ORCA-job ./opt_b97-3c_parallel
N         -5.87969       -0.07160        0.48529
C         -4.74848       -0.02160        0.33307
C         -3.32644        0.00204        0.16349
C         -2.89333       -1.25343       -0.17391
C         -1.66657       -0.65914       -0.09654
C         -1.64873        0.73491        0.20262
C         -2.87915        1.26769        0.44009
H         -3.24331        2.12334       -0.12581
C         -0.46658        1.42632        0.23981
N         -0.52865        2.32351       -0.76426
H          0.08835        3.13471       -0.76738
H         -1.44096        2.66646       -1.06743
C          0.78623        0.87203        0.21802
C          1.87222        1.76148        0.59425
N          3.22949        1.51185        0.63707
C          3.63779        0.28798        0.20365
N          3.41812       -0.96645       -0.29393
C          2.09729       -1.33991       -0.46819
N          2.43450       -2.34275       -0.80023
H          1.48244       -2.65911       -0.59484
H          2.83529       -3.07364       -1.39156
C          0.91434       -0.54063       -0.15807
C         -0.35217       -1.25693       -0.26685
N         -0.36485       -2.22127        0.28495
H         -1.15571       -2.66350       -0.18777
H         -0.47872       -2.44696        1.27507
N          4.71675        0.46530        0.37143
H          5.16874        1.33048        0.67337
H          5.45465       -0.23918        0.39890
H          1.79287        2.81319        0.91182
H         -3.14306       -2.11455        0.44389
