35
Coordinates from ORCA-job ./opt_b97-3c_parallel
N          6.47813        0.84615       -0.49022
C          5.37029        0.84736       -0.20906
C          4.01277        0.40669       -0.14203
C          3.38615       -0.88547       -0.12844
N          4.02153       -2.09233       -0.06826
H          5.02341       -2.12257       -0.22658
H          3.48492       -2.93937       -0.21731
C          1.98880       -0.55989       -0.10599
C          1.80439        0.86025       -0.01244
C          3.09207        1.49868       -0.00383
H          3.26270        2.55259       -0.21147
C          0.44118        1.33462        0.09890
N          0.45787        2.69345       -0.07877
H          1.31236        3.12163       -0.41648
H         -0.41720        3.14642       -0.32223
C         -0.70841        0.51997        0.20033
C         -2.00938        1.06603        0.40225
N         -2.15090        2.35921        0.84629
H         -3.05856        2.65184        1.19410
H         -1.33104        2.82277        1.22364
C         -3.20210        0.33743        0.21830
C         -4.51211        0.87523        0.52123
N         -5.54130        1.31310        0.75809
C         -3.24625       -0.99939       -0.32719
N         -2.59784       -1.88231       -0.17610
C         -1.55560       -1.83409        0.18767
N         -1.47990       -2.98813        0.91811
H         -2.21689       -3.67985        0.83412
H         -0.58768       -3.28764        1.29441
C         -0.48517       -0.86907        0.10066
C          0.80253       -1.37117       -0.07881
H          0.97993       -2.44014       -0.16993
N         -4.06068       -1.37818       -1.36056
H         -4.84127       -0.78368       -1.61709
H         -4.11412       -2.35844       -1.61308
