31
Coordinates from ORCA-job ./opt_b97-3c_parallel
N         -6.52239       -0.93461        0.43875
C         -5.43652       -1.26724        0.31061
C         -4.15738       -0.63810        0.22539
C         -2.90238       -1.32754        0.16109
C         -1.75555       -0.55903        0.04941
C         -1.91681        0.86392        0.01920
C         -3.31278        0.51254        0.03268
N         -3.94482        1.69339       -0.24047
H         -4.95012        1.74706       -0.11408
H         -3.41014        2.55412       -0.21002
C         -0.70810        1.63123       -0.06758
C          0.54684        1.02725       -0.14251
C          1.67201        1.91445       -0.27317
N          2.75355        1.95281       -0.05588
C          3.34467        1.02725        0.05111
N          4.33733        1.57673        0.82027
H          4.42527        2.58523        0.87752
H          5.15275        1.01896        1.04966
C          3.18760       -0.38987       -0.18813
C          4.43950       -1.09315       -0.38153
N          5.42069       -1.65952       -0.53316
C          1.93728       -1.04223       -0.22556
N          1.95672       -2.40952       -0.37265
H          1.10118       -2.88040       -0.64317
H          2.83618       -2.85544       -0.61303
C          0.68420       -0.37909       -0.12915
C         -0.49339       -1.14636       -0.03118
H         -0.45172       -2.23178        0.00106
H          1.67835        2.99825       -0.31638
H         -0.81070        2.71352       -0.09425
H         -2.84280       -2.41323        0.19563
