26
Coordinates from ORCA-job ./opt_b97-3c_parallel
N         -0.91719       -4.04026       -0.07992
C         -1.07707       -2.90895       -0.04265
C         -1.29687       -1.47926        0.01616
C         -2.66407       -1.15771        0.10947
C         -3.26228        0.09914        0.17626
C         -2.57042        1.34789        0.12637
N         -1.48502        1.44628        0.13869
C         -0.30315        0.82104        0.09744
C          0.83153        1.64380        0.13410
C          2.08464        1.06325        0.06063
C          2.22417       -0.29398       -0.05178
C          3.57487       -0.59628       -0.11830
C          4.26715        0.60886       -0.04006
C          3.34227        1.64375        0.07223
H          3.56579        2.70479        0.15271
H          5.34778        0.72321       -0.06281
H          4.01256       -1.58719       -0.21324
C          1.12314       -1.13599       -0.07869
C         -0.18258       -0.59274        0.00819
H          1.31327       -2.20221       -0.16312
H          0.73335        2.72487        0.21159
N         -3.18530        2.53242       -0.15081
H         -4.16613        2.54387       -0.40656
H         -2.62354        3.34541       -0.37734
H         -4.34425        0.17454        0.25646
H         -3.36527       -1.99018        0.13463
