32
Coordinates from ORCA-job ./opt_b97-3c_parallel
N          5.90594        0.50238       -0.07935
C          4.79401        0.59135       -0.33351
C          3.40622        0.25036       -0.30554
C          2.62739        1.43246       -0.06501
C          1.27348        0.95235       -0.06277
C          1.28366       -0.48457       -0.07741
C          2.64566       -0.94495       -0.06032
N          3.27499       -2.12511        0.21989
H          2.74350       -2.85413        0.68238
H          4.27985       -2.11039        0.36002
C         -0.00162       -1.14499       -0.08163
N          0.07818       -2.50693       -0.19227
H          0.97314       -2.91300       -0.44350
H         -0.76010       -3.02234       -0.43587
C         -1.22358       -0.47164        0.02226
C         -2.44367       -1.24314        0.05503
N         -3.54445       -1.14704        0.02951
C         -4.08231       -0.18639        0.09428
N         -5.36609       -0.58570       -0.14425
H         -5.55418       -1.54346       -0.41819
H         -6.08968        0.10686       -0.29868
C         -3.73201        1.19860        0.26365
C         -2.42604        1.69001        0.22105
C         -1.24397        0.93138        0.08251
C         -0.01546        1.60388        0.00132
N          0.10023        2.96714       -0.05884
H          0.99588        3.35918       -0.32611
H         -0.72918        3.50501       -0.28399
H         -2.34542        2.76848        0.32124
H         -4.56089        1.88805        0.40536
H         -2.57801       -2.30105        0.24712
H          2.86556        2.48803       -0.17371
