27
Coordinates from ORCA-job ./opt_b97-3c_parallel
N         -1.74114       -4.12218        0.02797
C         -1.69848       -2.97975        0.01276
C         -1.66455       -1.52907       -0.00460
C         -2.96218       -1.01900       -0.00712
C         -3.40425        0.28737       -0.02574
C         -2.64684        1.44128       -0.04447
N         -3.35189        2.61334       -0.06798
H         -4.35092        2.59162        0.10520
H         -2.85770        3.48596        0.08525
C         -1.26175        1.55593       -0.04021
C         -0.23311        0.58803       -0.01958
C          1.10021        1.11311       -0.00900
C          1.42232        2.52777        0.00496
N          1.65854        3.64645        0.01916
C          2.19549        0.25357       -0.00380
C          1.98799       -1.07395       -0.00712
C          3.27594       -1.63986        0.00040
C          4.08481       -0.44303        0.00752
N          3.52079        0.53497        0.00567
H          5.16360       -0.34169        0.01369
H          3.60177       -2.67489       -0.00129
C          0.73770       -1.64720       -0.00812
C         -0.42365       -0.83422       -0.01146
H          0.71768       -2.73237       -0.00615
H         -0.97009        2.60003       -0.05932
H         -4.48602        0.41136       -0.02835
H         -3.77427       -1.74626        0.00415
