29
Coordinates from ORCA-job ./opt_b97-3c_parallel
N          5.54112        0.98102        0.04786
C          4.41710        0.77465       -0.01466
C          3.01167        0.48724       -0.05859
C          2.46049        1.73864       -0.16658
C          1.27429        1.07931       -0.11750
C          1.30186       -0.34479       -0.12239
C          2.58404       -0.81567       -0.16057
N          3.27158       -1.97147       -0.16864
H          4.28755       -1.95596       -0.08709
H          3.02869       -2.70275       -0.83447
C          0.12338       -1.05755       -0.06081
N          0.28045       -2.36122        0.24619
H         -0.36721       -2.83839        0.86961
H          1.21525       -2.72320        0.43885
C         -1.14532       -0.51934       -0.08650
C         -2.25940       -1.44996       -0.18474
N         -3.61727       -1.19644       -0.16080
C         -3.98360        0.11016       -0.06603
N         -3.75660        1.44860        0.01227
C         -2.42747        1.81477        0.00166
C         -1.27652        0.93684       -0.03249
C         -0.03582        1.66424       -0.01190
H          0.07714        2.74727       -0.00962
H         -2.48246        2.91386        0.04871
N         -5.08397        0.03656       -0.03237
H         -5.71934        0.80639        0.17366
H         -5.64881       -0.81130       -0.00308
H         -2.39558       -2.54007       -0.25342
H          2.68223        2.53290        0.54558
