30
Coordinates from ORCA-job ./opt_b97-3c_parallel
N          5.89267        0.79289       -0.00951
C          4.75337        0.68331        0.01317
C          3.30978        0.55173        0.02397
C          2.63229        1.76482        0.00720
C          1.26685        2.01193        0.00712
C          0.17891        1.13671        0.00844
C         -1.05557        1.80743       -0.02513
C         -2.24735        1.10411       -0.05912
C         -2.24194       -0.26037       -0.04865
C         -3.56357       -0.81089       -0.13585
C         -4.27770        0.44499       -0.05950
N         -5.64239        0.39499        0.01308
H         -6.17341        1.24486       -0.14815
H         -6.10911       -0.49248       -0.13412
C         -3.54808        1.69317       -0.15445
H         -3.85668        2.67737        0.18295
H         -3.90804       -1.80933        0.11720
C         -1.04062       -0.97337       -0.00277
C         -1.15539       -2.41879       -0.00823
N         -1.25900       -3.55716       -0.01196
C          0.20708       -0.28166        0.02254
C          1.38122       -1.06454        0.05094
C          2.73625       -0.72576        0.05061
N          3.58116       -1.81004        0.07567
H          3.20086       -2.73671       -0.08244
H          4.57337       -1.66437       -0.07986
H          1.24618       -2.14201        0.07102
H         -1.10017        2.89458       -0.04212
H          1.03516        3.07549       -0.00490
H          3.24880        2.65968       -0.00579
