29
Coordinates from ORCA-job ./opt_b97-3c_parallel
N         -6.44450       -0.66991       -0.00092
C         -5.31039       -0.52596       -0.00069
C         -3.87050       -0.35982       -0.00094
C         -3.16190       -1.55659       -0.00077
C         -1.79147       -1.77753       -0.00190
C         -0.72603       -0.87986       -0.00204
N          0.49212       -1.48548       -0.00278
C          1.59834       -0.71556       -0.00275
C          1.51276        0.65583       -0.00192
N          0.31920        1.28282       -0.00167
C         -0.81647        0.53336       -0.00177
C         -1.98562        1.29867       -0.00175
C         -3.33326        0.93569       -0.00180
N         -4.19955        2.00200       -0.00377
H         -3.84453        2.95180        0.00842
H         -5.20210        1.84334        0.00876
H         -1.81366        2.37570       -0.00188
C          2.73952        1.39681       -0.00151
C          2.99500        2.80354        0.00066
N          3.71746        3.68904        0.00161
C          3.34539        0.08136       -0.00325
N          4.71422        0.17019       -0.00350
H          5.16924        1.07794       -0.00366
H          5.28259       -0.67129       -0.00498
C          2.90743       -1.29867       -0.00350
C          3.33659       -2.66295       -0.00650
N          4.20646       -3.40376       -0.00846
H         -1.51911       -2.83200       -0.00196
H         -3.75891       -2.46759       -0.00039
