26
Coordinates from ORCA-job ./opt_b97-3c_parallel
N         -5.88307        0.01270        0.00260
C         -4.74098        0.06166       -0.00802
C         -3.29320        0.12683       -0.00675
C         -2.78415        1.42194        0.00116
C         -1.46674        1.85858        0.00261
C         -0.27711        1.12975        0.00013
C          0.88520        1.92470        0.00221
C          2.12779        1.30998        0.00121
N          3.35413        1.87293        0.00201
C          4.03501        0.97155        0.00044
C          3.52957       -0.38539       -0.00125
C          4.26717       -1.60800       -0.00299
N          4.69606       -2.66755       -0.00204
C          2.16411       -0.04264       -0.00051
N          1.09738       -0.85653       -0.00311
C         -0.13714       -0.28142       -0.00316
C         -1.17291       -1.21896       -0.00976
C         -2.55942       -1.06878       -0.01383
N         -3.24587       -2.25870       -0.02996
H         -2.74298       -3.13798        0.01907
H         -4.25948       -2.26077        0.01887
H         -0.83567       -2.25616       -0.01336
H          5.06026        1.32150        0.00050
H          0.82947        3.01116        0.00433
H         -1.36818        2.94238        0.00658
H         -3.51904        2.22607        0.00510
