29
Coordinates from ORCA-job ./opt_b97-3c_parallel
N         -6.17195        0.12831       -0.05334
C         -5.02900        0.15467       -0.05637
C         -3.58054        0.19988       -0.04675
C         -3.05440        1.48798       -0.01638
C         -1.73171        1.90649        0.01538
C         -0.55270        1.16106        0.02196
C          0.62183        1.92909        0.07855
C          1.86170        1.30280        0.09037
C          1.91011       -0.06999        0.03436
N          0.79705       -0.82855       -0.01855
C         -0.43095       -0.24522       -0.02052
C         -1.47598       -1.17045       -0.06306
C         -2.86154       -1.00484       -0.06860
N         -3.56259       -2.18568       -0.10107
H         -4.56384       -2.16520        0.06338
H         -3.06804       -3.05541        0.06554
H         -1.15058       -2.21129       -0.09021
C          3.20384       -0.68888        0.03544
C          3.61609       -2.05680        0.07685
N          4.48047       -2.80234        0.01289
C          3.66937        0.68132        0.05100
N          5.02858        0.76963       -0.08615
H          5.58172       -0.07986       -0.02889
H          5.49005        1.65733        0.07759
C          3.10579        2.00744        0.15835
H          3.36259        2.86628       -0.45370
H          0.57861        3.01565        0.11697
H         -1.61816        2.98857        0.04205
H         -3.77914        2.30164       -0.01001
