28
Coordinates from ORCA-job ./opt_b97-3c_parallel
N          1.10081        3.79595       -0.14325
C          1.16416        2.65466       -0.09895
C          1.25612        1.20445       -0.02245
C          2.58372        0.69888        0.07182
C          2.97617       -0.63972        0.14909
C          2.11999       -1.78052        0.13025
N          1.03529       -1.73325        0.17072
C         -0.04312       -0.94780        0.12780
C         -1.27617       -1.61228        0.20233
C         -2.44185       -0.87710        0.10400
C         -2.40093        0.47862       -0.07012
C         -3.69977        0.95281       -0.16084
C         -4.54484       -0.14624       -0.03321
C         -3.76502       -1.28697        0.13357
H         -4.12584       -2.30525        0.25855
H         -5.63153       -0.11837       -0.06119
H         -4.00280        1.98662       -0.30655
C         -1.19841        1.16654       -0.12560
C          0.03121        0.46585       -0.01145
H         -1.25932        2.24194       -0.25917
H         -1.32058       -2.69274        0.32135
N          2.53061       -3.02755       -0.23863
H          3.47507       -3.16541       -0.57976
H          1.83769       -3.73343       -0.45926
H          4.02810       -0.90952        0.22137
N          3.64958        1.56720        0.09116
H          4.56589        1.21302        0.34196
H          3.46856        2.55759        0.21973
