26
Coordinates from ORCA-job ./opt_b97-3c_parallel
N          4.89699        2.20311        0.00211
C          4.26912        1.24909       -0.00836
C          3.26557        0.23554       -0.01215
C          1.85811        0.00176       -0.01811
C          1.44820       -1.30050        0.06167
N          0.14384       -1.62737        0.06055
C         -0.80106       -0.63760        0.00069
C         -2.14430       -1.07724       -0.00282
C         -2.41734       -2.50379        0.01780
N         -2.64817       -3.62358        0.02776
C         -3.31906       -0.32414       -0.02004
C         -3.49877        1.04797       -0.03165
C         -2.53261        2.03918       -0.04191
N         -2.99491        3.32655       -0.05123
H         -2.34146        4.08597        0.10955
H         -3.98000        3.49817        0.12144
C         -1.15143        1.87321       -0.05342
C         -0.36318        0.71760       -0.04076
N          0.96934        1.01143       -0.06160
H         -0.59276        2.80921       -0.06504
H         -4.53618        1.37830       -0.03458
H         -4.25287       -0.88561       -0.01758
C          2.47834       -2.28076        0.23024
C          3.41394       -1.20274       -0.00464
H          4.44893       -1.53647        0.01735
H          2.51946       -3.27721       -0.19449
