25
Coordinates from ORCA-job ./opt_b97-3c_parallel
N         -5.75549       -1.01749       -0.35872
C         -4.63157       -0.83077       -0.25954
C         -3.21118       -0.61232       -0.13142
C         -2.37010       -1.72408       -0.07867
C         -0.97234       -1.73740       -0.00417
C         -0.05699       -0.67129       -0.00883
N          1.25097       -1.04314        0.03268
C          2.16644       -0.05908       -0.00088
C          3.56984       -0.17076        0.01896
C          4.51922       -1.23458        0.09682
N          5.17955       -2.11533        0.40463
C          3.84727        1.24803       -0.06394
N          3.02684        2.02312       -0.11539
C          1.90786        1.27032       -0.08057
C          0.58044        1.67580       -0.11468
C         -0.42434        0.69810       -0.07326
N         -1.69944        1.11397       -0.09037
C         -2.72649        0.73804       -0.06187
N         -3.46826        1.80395        0.36284
H         -4.47777        1.71452        0.42122
H         -3.07799        2.73826        0.31829
H          0.32989        2.73272       -0.17086
H          4.80214        1.75959       -0.08632
H         -0.53546       -2.73354        0.03769
H         -2.84935       -2.70078       -0.10594
