28
Coordinates from ORCA-job ./opt_b97-3c_parallel
N         -0.90149       -3.56487       -0.63874
C         -1.04965       -2.46113       -0.37794
C         -1.26966       -1.05423       -0.08054
C         -2.64845       -0.68868       -0.11559
C         -3.19404        0.59238       -0.01949
C         -2.47811        1.82199        0.06369
N         -1.40816        1.87384       -0.11394
C         -0.24622        1.21925       -0.16736
C          0.87574        2.02820       -0.36711
C          2.12033        1.44375       -0.31108
C          2.30430        0.15379        0.04132
N          3.62438       -0.11210        0.19137
C          4.20388        0.82923       -0.03604
C          3.41556        1.98974       -0.38018
H          3.76003        2.98187       -0.65480
H          5.27982        0.72159        0.03349
C          1.20102       -0.68317        0.24183
C          1.51456       -1.95896        0.85525
N          1.77072       -2.95115        1.36312
C         -0.12642       -0.18624        0.01669
H          0.77704        3.09870       -0.53393
N         -2.95999        2.93020        0.69533
H         -2.39479        3.77003        0.74888
H         -3.93718        2.98529        0.95930
H         -4.27073        0.74805       -0.05719
N         -3.61915       -1.65610       -0.24552
H         -3.33696       -2.59753       -0.50056
H         -4.56987       -1.37234       -0.45127
