30
Coordinates from ORCA-job ./opt_b97-3c_parallel
N          5.09358        2.06078        0.16249
C          4.41335        1.14497        0.09341
C          3.54663       -0.00228        0.01974
C          3.95456       -1.33004       -0.05802
C          2.81700       -2.13133       -0.10546
C          1.71996       -1.28450       -0.05514
C          2.16004        0.00329        0.01592
C          1.25864        1.04835        0.05941
C         -0.12827        0.79101        0.03168
C         -0.86434        1.97854        0.04211
C         -2.23135        2.19290       -0.00459
C         -3.23444        1.24120       -0.02768
C         -3.14100       -0.14519       -0.00482
N         -4.38425       -0.73815       -0.00257
H         -5.20099       -0.16398        0.17410
H         -4.45092       -1.73351        0.18416
C         -1.98158       -0.95710        0.00433
C         -2.26677       -2.38680        0.04765
N         -2.50201       -3.50507        0.09433
C         -0.61389       -0.55307       -0.01025
C          0.36958       -1.58281       -0.06546
H          0.13172       -2.64009       -0.12467
H         -4.24641        1.64613       -0.05478
N         -2.63875        3.49879       -0.02376
H         -3.60542        3.70352       -0.25269
H         -1.94793        4.22159       -0.19412
H         -0.28310        2.89965        0.07304
H          1.64777        2.06387        0.10415
H          2.79445       -3.21664       -0.16980
H          4.98334       -1.68194       -0.07846
