27
Coordinates from ORCA-job ./opt_b97-3c_parallel
N         -5.86739       -0.20014       -0.01020
C         -4.73653       -0.03313       -0.00766
C         -3.31121        0.19534       -0.00389
C         -2.85742        1.51565       -0.00254
C         -1.53170        1.96713       -0.00090
C         -0.33362        1.23029       -0.00050
C          0.84433        1.99719        0.00060
C          2.07104        1.35066        0.00065
C          2.15636       -0.01977       -0.00070
C          3.49843       -0.37057       -0.00033
C          4.04243       -1.70347       -0.00170
N          4.48629       -2.75645       -0.00295
C          4.23840        0.80883        0.00104
C          3.35125        1.88139        0.00179
H          3.61459        2.93632        0.00307
H          5.32321        0.88062        0.00169
C          1.01327       -0.80852       -0.00181
C         -0.24292       -0.18396       -0.00177
N         -1.32602       -0.97505       -0.00252
C         -2.41996       -0.93246       -0.00230
N         -2.81570       -2.24033        0.02012
H         -2.13141       -2.98765       -0.00393
H         -3.80167       -2.47712        0.00078
H          1.09291       -1.89358       -0.00256
H          0.81004        3.08443        0.00183
H         -1.43161        3.05003        0.00030
H         -3.61880        2.29291       -0.00313
