30
Coordinates from ORCA-job ./opt_b97-3c_parallel
N         -5.51707       -2.15533        0.00114
C         -4.47987       -1.67454        0.00093
C         -3.16843       -1.04951        0.00079
C         -2.13716       -1.96839        0.00218
C         -0.77050       -1.77892        0.00222
C          0.01874       -0.61393        0.00111
C         -0.49754        0.72499        0.00023
C          0.46519        1.77193        0.00001
C          1.81673        1.51783       -0.00001
C          2.31459        0.24716        0.00023
C          3.71255        0.35660       -0.00042
C          4.71260       -0.68186       -0.00101
N          5.52095       -1.48966       -0.00168
C          4.03360        1.70932       -0.00106
C          2.85342        2.43513       -0.00078
H          2.76095        3.51874       -0.00136
H          5.03731        2.12800       -0.00190
C          1.43706       -0.83953        0.00101
C          2.03019       -2.16335        0.00171
N          2.47739       -3.21528        0.00224
H          0.22089        2.82870       -0.00043
C         -1.87301        1.13242       -0.00049
C         -2.14248        2.56934       -0.00152
N         -2.36930        3.69030       -0.00234
C         -3.05885        0.34855       -0.00058
N         -4.27349        1.01477       -0.00214
H         -4.30145        2.02922       -0.00302
H         -5.14385        0.49310       -0.00205
H         -0.28327       -2.74666        0.00329
H         -2.43277       -3.01778        0.00320
