27
Coordinates from ORCA-job ./opt_b97-3c_parallel
N          4.76361        2.17583        0.37087
C          4.15039        1.21757        0.26325
C          3.25490        0.12649        0.04577
C          1.82801       -0.12297        0.01165
C          1.48750       -1.44495       -0.07407
C          2.63812       -2.17933       -0.10665
C          3.68046       -1.26643       -0.03907
H          4.71039       -1.61467       -0.05483
H          2.72155       -3.26118       -0.17733
C          0.16272       -1.84269       -0.11626
C         -0.81584       -0.84284       -0.07350
N         -2.09717       -1.23283       -0.10256
C         -3.11469       -0.83689       -0.08174
N         -3.94891       -1.88845        0.15937
H         -3.55667       -2.80102        0.36159
H         -4.91453       -1.71670        0.41535
C         -3.55293        0.52451       -0.11372
C         -2.70607        1.63102       -0.04797
N         -3.30402        2.86101       -0.05676
H         -4.28591        2.92382       -0.30212
H         -2.72524        3.68224       -0.19541
C         -1.30398        1.60588        0.02013
C         -0.41465        0.51618        0.00285
N          0.90414        0.85738        0.04884
H         -0.82996        2.58507        0.07696
H         -4.63117        0.65804       -0.17368
H         -0.10504       -2.89486       -0.18029
