26
Coordinates from ORCA-job ./opt_b97-3c_parallel
N         -6.01803       -0.58287       -0.00251
C         -4.88518       -0.43791       -0.00246
C         -3.47395       -0.21695       -0.00175
C         -2.78267       -1.40100       -0.00223
N         -1.50192       -1.78471       -0.00172
C         -0.43976       -0.89840       -0.00005
N          0.61423       -1.66535        0.00101
C          1.74830       -1.04179        0.00153
C          1.99656        0.30138        0.00274
C          3.34768        0.51093        0.00150
C          3.99498       -0.64960       -0.00236
N          5.33000       -0.76525       -0.01461
H          5.97007        0.02905        0.00743
H          5.83025       -1.65298        0.00798
C          3.04700       -1.62794       -0.00060
H          3.22277       -2.69936       -0.00126
H          3.83183        1.48667       -0.00142
C          0.84394        1.17567        0.00238
C          1.27674        2.54103        0.00287
N          1.20612        3.68063       -0.00217
C         -0.40861        0.55900        0.00083
C         -1.54316        1.45484       -0.00022
C         -2.93399        1.10637       -0.00103
H         -3.64260        1.93089       -0.00118
H         -1.35077        2.52334        0.00007
H         -3.23579       -2.40543       -0.00301
