27
Coordinates from ORCA-job ./opt_b97-3c_parallel
N         -1.47115       -3.50365        0.74208
C         -1.42940       -2.38882        0.49501
C         -1.39048       -0.99865        0.12119
C         -2.65107       -0.59972       -0.30572
C         -3.13132        0.61090       -0.03518
C         -2.37202        1.58091        0.53489
N         -1.13359        2.00399        0.27237
C         -0.15641        1.20660       -0.19442
N          0.91863        1.92723       -0.31256
C          2.10310        1.40721       -0.22781
C          2.22692        0.02570        0.05387
N          3.56159       -0.26998        0.13403
C          4.16231        0.95452       -0.10492
C          3.31887        2.01498       -0.34102
H          3.52459        2.71467       -1.14893
H          5.25629        0.83699       -0.06118
C          1.12019       -0.81052        0.21241
C          1.57774       -2.12885        0.56384
N          1.60065       -2.39408        1.67913
C         -0.14521       -0.23328        0.03738
N         -2.61098        2.60823        0.85543
H         -2.47046        3.61671        0.91083
H         -3.58023        2.44245        1.12492
H         -4.12946        0.87722       -0.38414
N         -3.43250       -1.42330       -1.03824
H         -3.25135       -2.42782       -1.04654
H         -4.44614       -1.30745       -1.02809
