25
Coordinates from ORCA-job ./opt_b97-3c_parallel
N          4.89274        1.64967       -0.00234
C          4.07273        0.85339       -0.00198
C          3.05105       -0.16082        0.00220
C          1.69305        0.03892        0.00290
C          1.08682       -1.18039        0.00706
N         -0.24718       -1.32119        0.00730
C         -1.05876       -0.21656        0.00353
C         -2.44711       -0.49408        0.00284
C         -2.88755       -1.87878        0.00292
N         -3.25160       -2.96256        0.00245
C         -3.52455        0.39355        0.00158
C         -3.53717        1.77785        0.00117
C         -2.45794        2.63995        0.00072
C         -1.10830        2.32676        0.00028
C         -0.46845        1.08341        0.00131
C          0.93559        1.19548        0.00038
H          1.43354        2.16287       -0.00167
H         -0.46519        3.20495       -0.00034
H         -2.69960        3.70056        0.00021
H         -4.51954        2.24475        0.00079
H         -4.51865       -0.05254        0.00131
C          2.01910       -2.28219        0.01726
C          3.26539       -1.53304        0.00597
H          4.27714       -1.93157        0.00412
H          1.84113       -3.35194       -0.01923
