26
Coordinates from ORCA-job ./opt_b97-3c_parallel
N         -5.87737       -1.22708       -0.01292
C         -4.77501       -0.92432       -0.01944
C         -3.40223       -0.51400       -0.04950
C         -3.10183        0.88305       -0.04454
N         -1.90974        1.49926       -0.06171
C         -0.68150        0.93860       -0.05702
N          0.28066        1.89951       -0.06115
C          1.58434        1.58155       -0.04143
N          2.65346        2.40366       -0.04597
C          3.55396        1.73030       -0.01821
C          3.38462        0.29651        0.01607
C          4.51873       -0.56992        0.06439
N          5.42391       -1.26384        0.13492
C          1.96908        0.28408       -0.00696
C          1.05402       -0.76000       -0.00643
C          1.57603       -2.10712        0.03724
N          1.99286       -3.17062        0.08385
C         -0.32959       -0.44268       -0.04245
C         -1.27652       -1.60864       -0.08056
C         -2.59841       -1.61141       -0.09444
H         -3.06165       -2.59799       -0.13424
H         -0.82783       -2.59559       -0.10981
H          4.49368        2.30324       -0.01703
N         -3.47959        1.91937       -0.02486
H         -3.32069        2.83022        0.40217
H         -4.38978        1.59574        0.29616
