30
Coordinates from ORCA-job ./opt_b97-3c_parallel
N         -1.72620       -3.57843       -0.52857
C         -1.70805       -2.45452       -0.31566
C         -1.72549       -1.02020       -0.07555
C         -3.04599       -0.47522       -0.10584
C         -3.42325        0.86831       -0.04326
C         -2.56498        2.00507        0.00335
N         -1.49237        1.88886       -0.10765
C         -0.41408        1.10548       -0.13058
C          0.79950        1.79226       -0.26222
C          1.99342        1.10351       -0.19181
N          3.25083        1.59147       -0.26572
C          3.93279        0.70931       -0.09859
N          5.28937        0.83867       -0.12973
H          5.87690        0.01274       -0.11058
H          5.70073        1.71112       -0.44225
C          3.32067       -0.57409        0.15469
C          1.95713       -0.22407        0.05442
C          0.78697       -0.96599        0.19447
C          1.00200       -2.31727        0.66612
N          1.20069       -3.37304        1.05679
C         -0.47543       -0.31057        0.00997
H          3.80334       -1.52957        0.33487
H          0.81135        2.87272       -0.39396
N         -2.93032        3.20626        0.53487
H         -2.25453        3.95834        0.60910
H         -3.89966        3.39654        0.76251
H         -4.47221        1.15794       -0.07839
N         -4.13792       -1.30859       -0.19812
H         -3.98814       -2.28825       -0.41817
H         -5.04652       -0.90745       -0.40075
