30
Coordinates from ORCA-job ./opt_b97-3c_parallel
N         -3.15298       -3.44376       -0.32189
C         -2.78721       -2.36479       -0.22635
C         -2.33305       -0.98915       -0.09294
C         -3.37173       -0.04063        0.12966
C         -3.24737        1.34940        0.20370
C         -2.07093        2.11863       -0.04777
N         -1.09768        1.63757       -0.00277
C         -0.33297        0.53924       -0.01289
C          1.06986        0.70944        0.06312
C          1.64721        2.03114        0.19110
N          2.08769        3.08194        0.28930
C          1.88624       -0.42113        0.00095
C          1.32607       -1.66422       -0.16155
C          2.32649       -2.62114       -0.20315
C          3.53412       -1.95394       -0.05370
C          3.27116       -0.59419        0.07260
C          4.29396        0.39970        0.27954
N          5.11565        1.17431        0.45402
H          4.51751       -2.41792       -0.02726
H          2.19228       -3.69448       -0.31511
C         -0.04273       -1.85291       -0.23278
C         -0.92274       -0.74913       -0.12531
H         -0.38535       -2.87770       -0.34127
N         -2.09403        3.40820       -0.48941
H         -2.96263        3.93185       -0.48562
H         -1.22482        3.92310       -0.58445
H         -4.11293        1.97716        0.40631
N         -4.66486       -0.47039        0.31156
H         -5.34601        0.18398        0.68026
H         -4.82805       -1.46019        0.46776
