24
Coordinates from ORCA-job ./opt_b97-3c_parallel
N         -4.37648       -2.30664        0.24208
C         -3.73912       -1.37665        0.05632
C         -2.92485       -0.21862       -0.13836
C         -3.25741        1.10840       -0.11468
C         -2.16019        1.86699       -0.11901
C         -1.07102        1.04803       -0.14644
C         -1.50613       -0.27418       -0.26423
C         -0.63455       -1.36026       -0.00583
C          0.78024       -1.09765       -0.05752
N          1.52590       -2.25657       -0.14608
C          2.87616       -2.14703       -0.12914
N          4.02994       -1.44539       -0.04863
C          3.84253       -0.09139        0.08231
C          2.60003        0.65125        0.09702
C          1.25461        0.23606        0.01975
C          0.33787        1.31610        0.02805
C          0.64348        2.71548        0.15676
N          0.87441        3.83279        0.22798
H          2.84666        1.70177        0.18090
H          4.84769        0.35106        0.14873
H          3.13750       -3.21126       -0.22929
H         -1.02647       -2.32602        0.30740
H         -2.14585        2.95439       -0.10920
H         -4.27514        1.49095       -0.09747
