28
Coordinates from ORCA-job ./opt_b97-3c_parallel
N         -4.80834       -2.14543       -0.02898
C         -4.07642       -1.26782       -0.02087
C         -3.16534       -0.15311       -0.01045
C         -3.52478        1.18933       -0.01014
C         -2.35958        1.94862        0.00031
C         -1.28439        1.06488        0.00673
C         -1.77930       -0.21066       -0.00045
C         -0.93077       -1.30125        0.00069
C          0.46249       -1.10615        0.01037
C          1.16672       -2.31555        0.00664
C          2.53013       -2.56534        0.01105
C          3.57532       -1.66135        0.02345
C          3.50545       -0.27685        0.03607
N          4.70828        0.37469        0.04854
H          5.55232       -0.15183       -0.14735
H          4.72233        1.37619       -0.11142
C          2.37114        0.53329        0.03674
C          0.99668        0.21560        0.02176
C          0.08514        1.31333        0.01802
C          0.48755        2.70503        0.02087
N          0.79687        3.80552        0.01348
H          2.63783        1.58490        0.05111
H          4.57066       -2.10222        0.02581
H          2.81720       -3.61428        0.00429
H          0.57052       -3.22605       -0.00303
H         -1.36161       -2.30062       -0.00686
H         -2.30747        3.03490        0.00287
H         -4.53979        1.57939       -0.01743
