25
Coordinates from ORCA-job ./opt_b97-3c_parallel
N         -5.77600       -1.16221        0.00098
C         -4.65935       -0.92157        0.00053
C         -3.26186       -0.57861        0.00025
C         -2.33847       -1.67647        0.00046
C         -0.98574       -1.62515        0.00053
C         -0.08814       -0.60868       -0.00047
N          1.24860       -1.02631       -0.00048
C          2.18082        0.00055       -0.00098
C          1.85393        1.37195       -0.00163
N          3.09455        1.98981       -0.00189
C          4.14346        1.16837       -0.00140
C          3.59281       -0.08100       -0.00077
C          4.31623       -1.31154        0.00029
N          4.92771       -2.27573        0.00130
H          5.19193        1.50485       -0.00145
N          0.59950        1.69429       -0.00169
C         -0.36182        0.81311       -0.00096
C         -1.60660        1.42265       -0.00071
C         -2.91653        0.77413       -0.00016
N         -3.61918        1.63478       -0.00025
H         -3.67139        2.65271       -0.00073
H         -4.58613        1.30774        0.00006
H         -1.58735        2.51939       -0.00107
H         -0.54204       -2.62053        0.00222
H         -2.79871       -2.66128        0.00098
