27
Coordinates from ORCA-job ./opt_b97-3c_parallel
N          2.48336        1.72782       -2.50098
C          2.34068        1.32298       -1.44320
C          2.11641        0.80363       -0.13032
C          3.11420        0.09942        0.48988
N          4.01992        0.86539        1.11693
H          4.92864        0.48496        1.38195
H          4.16148        1.83721        0.84155
C          3.15513       -1.23411        0.45859
C          2.15623       -1.95748       -0.13405
N          0.84747       -1.92946       -0.42765
C          0.15327       -0.78826       -0.27056
N         -1.12799       -0.96620       -0.40062
C         -2.01965       -0.06485       -0.11805
C         -1.60168        1.26842        0.17770
N         -2.58989        2.11754        0.45529
C         -3.73112        1.33900        0.34533
C         -3.38103       -0.01104        0.00802
C         -4.36003       -1.04084       -0.12303
N         -5.11787       -1.89147       -0.20495
H         -4.74343        1.73661        0.51666
C         -0.19663        1.57895        0.20549
C          0.70333        0.53157       -0.01456
H          0.16347        2.59716        0.34525
N          2.15441       -3.00155       -0.49064
H          1.73130       -3.92407       -0.57503
H          3.09794       -3.08577       -0.86516
H          3.96631       -1.75954        0.96299
