24
Coordinates from ORCA-job ./opt_b97-3c_parallel
N         -5.97609       -0.08706        0.03848
C         -4.83471       -0.12962       -0.00013
C         -3.40515       -0.19784       -0.01049
C         -2.79145       -1.48245       -0.09377
N         -1.49057       -1.81121       -0.09786
C         -0.42901       -0.98491       -0.05791
N          0.72435       -1.69752       -0.06978
C          1.92780       -1.10697       -0.04318
N          3.10653       -1.73667       -0.03334
C          3.81127       -0.54471       -0.00336
N          4.91304       -0.63820        0.02590
H          5.63189        0.08310       -0.03411
H          5.40224       -1.50908        0.23356
N          3.28839        0.73858        0.00109
C          2.03537        0.26074       -0.02276
C          0.88280        1.05143       -0.01653
C          1.06760        2.48776       -0.01982
N          1.23605        3.61754       -0.02961
C         -0.39626        0.43513       -0.01277
C         -1.58516        1.35331        0.06014
C         -2.87261        1.05217        0.07240
H         -3.55195        1.90222        0.14724
H         -1.38200        2.41716        0.12840
H         -3.32162       -2.44504       -0.15322
