25
Coordinates from ORCA-job ./opt_b97-3c_parallel
N         -4.34234       -2.34465        0.00204
C         -3.75931       -1.36166        0.00367
C         -2.93455       -0.19561       -0.00251
C         -1.50722        0.05152       -0.00199
N         -0.59540       -0.93557       -0.00180
C          0.73605       -0.62963       -0.00111
C          1.64566       -1.72143       -0.00100
C          1.11168       -3.06946       -0.00203
N          0.70619       -4.13837       -0.00293
C          3.05233       -1.69231       -0.00009
C          3.90126       -0.58578        0.00104
C          3.50193        0.78741        0.00138
N          2.44729        1.06786        0.00055
C          1.14981        0.72960       -0.00052
C          0.18029        1.75320       -0.00106
C          0.52774        3.15747       -0.00080
N          0.78623        4.27153       -0.00058
C         -1.15374        1.37060       -0.00170
C         -2.30632        2.10920       -0.00211
C         -3.35289        1.20012       -0.00247
H         -4.38188        1.55141       -0.00263
H         -2.38976        3.19412       -0.00200
H          4.12497        1.67386        0.00458
H          4.97950       -0.72708        0.00178
H          3.56255       -2.65439       -0.00020
