26
Coordinates from ORCA-job ./opt_b97-3c_parallel
N          4.66295        1.90326        0.10209
C          3.94977        1.01121        0.06945
C          3.03790       -0.10250        0.02954
C          3.39471       -1.44778        0.00043
C          2.22914       -2.20858       -0.03515
C          1.16326       -1.32205       -0.02820
C          1.65265       -0.03981        0.01060
C          0.79979        1.05573        0.02080
C         -0.58902        0.84212       -0.01148
C         -1.38064        2.00452       -0.01732
C         -2.77465        2.12737       -0.06709
C         -3.71354        1.09881       -0.10277
C         -3.38973       -0.29475       -0.06445
N         -2.40035       -0.76102       -0.06492
C         -1.08852       -0.48433       -0.04457
C         -0.20091       -1.56990       -0.05422
H         -0.57295       -2.59181       -0.08217
N         -4.33162       -1.27210        0.06431
H         -4.04269       -2.22655        0.24596
H         -5.29739       -1.02152        0.24274
H         -4.77274        1.34069       -0.14950
H         -3.17030        3.13991       -0.08284
H         -0.84815        2.95283        0.00823
H          1.21263        2.06194        0.04795
H          2.16788       -3.29382       -0.06460
H          4.40963       -1.83774        0.00381
