26
Coordinates from ORCA-job ./opt_b97-3c_parallel
N         -5.87195       -1.04248       -0.01442
C         -4.75306       -0.81325        0.00955
C         -3.34085       -0.54204        0.00531
C         -2.47911       -1.68720        0.00706
C         -1.12664       -1.70356        0.00315
C         -0.15758       -0.75879        0.00156
C          1.24878       -1.11505        0.00205
C          2.18212       -0.08278       -0.00234
C          1.96023        1.32619       -0.00496
N          3.14173        2.04218       -0.00562
C          4.17399        1.20830       -0.00346
C          3.60533       -0.03205       -0.00126
C          4.48249       -1.15739        0.01077
N          5.15524       -2.07986        0.02069
H          5.18954        1.63406       -0.00379
N          0.66768        1.48677       -0.00565
C         -0.35639        0.67523       -0.00271
C         -1.56551        1.35494       -0.00444
C         -2.91299        0.78722       -0.00058
N         -3.57026        1.68318       -0.00281
H         -3.59987        2.70170       -0.00799
H         -4.54393        1.37836       -0.00543
H         -1.48233        2.44757       -0.00847
H          1.58847       -2.14921        0.00569
H         -0.73548       -2.71946        0.00330
H         -2.98940       -2.64710        0.01102
