30
Coordinates from ORCA-job ./opt_b97-3c_parallel
N          1.12404        0.80858        2.94543
C          1.53554        0.82695        1.88045
C          1.97139        0.79954        0.51553
C          3.26894        0.84238        0.07737
C          3.90838       -0.26184       -0.31849
C          3.27134       -1.47339       -0.31624
N          2.05229       -2.03628       -0.23515
C          0.94112       -1.27686       -0.12766
N         -0.23820       -2.00774        0.02982
C         -1.42728       -1.28325        0.09934
N         -2.62677       -1.92593        0.31051
C         -3.58186       -0.93663        0.30162
N         -4.59295       -1.36173        0.46659
H         -5.37526       -0.77354        0.16718
H         -5.03165       -2.13809        0.96772
C         -2.91924        0.31634        0.06829
C         -3.62404        1.55168       -0.03416
N         -4.21725        2.52138       -0.12996
C         -1.48957        0.14907       -0.06936
C         -0.21065        0.70831       -0.42512
C         -0.42350        1.13426       -1.76985
N         -0.62220        1.43420       -2.85196
C          0.97615        0.10088       -0.11710
N          3.62161       -2.51767       -0.37552
H          3.65675       -3.50871       -0.13595
H          4.54705       -2.28881       -0.73831
H          4.94435       -0.19910       -0.65055
N          3.82168        2.06506        0.10218
H          4.71888        2.25719       -0.34486
H          3.26198        2.91752        0.09109
