30
Coordinates from ORCA-job ./opt_b97-3c_parallel
N          2.39226        3.53658       -0.54389
C          2.38083        2.41410       -0.33057
C          2.34589        1.00544       -0.01638
C          3.60686        0.50472        0.29564
N          4.53727        1.30952        0.85379
H          5.53043        1.09995        0.75383
H          4.43656        2.32437        0.80837
C          3.95222       -0.76438        0.09464
C          3.05881       -1.70169       -0.30555
N          1.76614       -2.00920       -0.22220
C          0.83193       -1.10774        0.11570
N         -0.33870       -1.68567        0.15654
C         -1.34795       -0.87885        0.08552
C         -1.25312        0.51216       -0.01190
N         -0.08616        1.17959       -0.03485
C          1.04351        0.34414        0.04578
C         -2.58790        1.00520       -0.08879
C         -2.84720        2.40670       -0.24241
N         -2.85286        2.93240       -1.25748
C         -3.57141        0.03992       -0.02537
N         -4.90561        0.16999       -0.13711
H         -5.53428       -0.50152        0.30275
H         -5.34348        1.08978       -0.09196
C         -2.76643       -1.07844        0.08236
C         -3.31268       -2.39806        0.19766
N         -3.37620       -3.13609        1.06714
N          3.27281       -2.73809       -0.61792
H          3.00417       -3.71045       -0.76683
H          4.28123       -2.70134       -0.76236
H          4.95863       -1.08818        0.36387
