23
Coordinates from ORCA-job ./opt_b97-3c_parallel
N         -4.44579       -2.26814        0.06724
C         -3.78229       -1.34320       -0.03320
C         -2.93641       -0.19506       -0.11973
C         -3.23522        1.14112       -0.08091
C         -2.12211        1.87718       -0.05427
C         -1.05095        1.03697       -0.07664
C         -1.51635       -0.28326       -0.18029
C         -0.67351       -1.42676       -0.05814
C          0.74574       -1.17725       -0.06080
N          1.58268       -2.29345       -0.12897
C          2.95103       -2.10775       -0.11922
N          4.04653       -1.27390       -0.06072
C          3.65672        0.04374        0.04373
N          2.44857        0.50471        0.08578
C          1.20108        0.14988        0.02235
C          0.36585        1.27849        0.04578
C          0.77012        2.65532        0.16614
N          1.05651        3.75733        0.26691
H          4.61200        0.58777        0.08816
H          3.21000       -3.17404       -0.19914
H         -1.00878       -2.29524        0.50467
H         -2.08276        2.96381       -0.02654
H         -4.24425        1.54666       -0.07625
