29
Coordinates from ORCA-job ./opt_b97-3c_parallel
N         -6.12856       -0.13102       -0.09693
C         -4.98761       -0.08765       -0.06111
C         -3.55594       -0.07352       -0.04050
C         -3.09679        1.20821       -0.18356
C         -1.83511        1.62847       -0.18016
C         -0.67920        0.89137       -0.05123
C         -0.54960       -0.54916        0.02221
N         -1.53137       -1.46217        0.08377
C         -2.86365       -1.32172        0.07739
N         -2.90925       -2.41883        0.18458
H         -2.73170       -3.36745        0.51260
H         -3.92350       -2.31255        0.16093
N          0.56167       -1.20206        0.10233
C          1.71734       -0.62799        0.08948
C          1.83745        0.79748        0.05366
C          3.10158        1.33512        0.05892
C          3.76408        0.13757        0.05131
N          4.85772        0.28282        0.00445
H          5.49782        1.07395        0.06824
H          5.42497       -0.51959       -0.26801
C          3.00776       -1.07425        0.08597
C          3.42944       -2.44173        0.09161
N          3.30240       -3.22586       -0.72940
H          3.36677        2.12686        0.76052
C          0.61599        1.58390       -0.00932
C          0.72650        3.01339       -0.03676
N          0.80367        4.15252       -0.02506
H         -1.74308        2.70214       -0.32210
H         -3.83645        2.00046       -0.31657
