29
Coordinates from ORCA-job ./opt_b97-3c_parallel
N         -1.95639       -3.34417        0.95204
C         -1.86707       -2.25641        0.61589
C         -1.73989       -0.90372        0.14351
C         -2.96226       -0.44292       -0.31946
C         -3.39303        0.78837       -0.06205
C         -2.60194        1.71189        0.54234
N         -1.33156        2.06284        0.31694
C         -0.38596        1.22781       -0.15652
N          0.74122        1.87002       -0.26719
C          1.89870        1.28172       -0.23109
C          1.93926       -0.11609       -0.02706
N          3.26155       -0.50495        0.00271
C          3.98527        0.66724       -0.18413
N          5.06004        0.39920       -0.15401
H          5.83427        0.94324       -0.54277
H          5.50987       -0.40240        0.29495
C          3.16975        1.77176       -0.33073
H          3.41359        2.56141       -1.04007
C          0.77879       -0.88120        0.12724
C          1.14861       -2.25071        0.37308
N          1.32226       -2.49325        1.47635
C         -0.45348       -0.21822        0.02345
N         -2.73935        2.74956        0.88768
H         -2.60163        3.75531        0.98798
H         -3.72162        2.58133        1.10627
H         -4.36062        1.10867       -0.44957
N         -3.72520       -1.23862       -1.09815
H         -4.72180       -1.04609       -1.20696
H         -3.62696       -2.25383       -1.05131
