30
Coordinates from ORCA-job ./opt_b97-3c_parallel
N          5.17108        1.50108        0.79791
C          4.47450        0.63975        0.51708
C          3.58963       -0.44654        0.18554
C          3.96490       -1.77179       -0.01177
C          2.81712       -2.51586       -0.26907
C          1.74460       -1.63875       -0.22214
C          2.21157       -0.37962        0.04514
C          1.35022        0.70210        0.13212
C         -0.04053        0.50319       -0.02888
C         -0.87439        1.64721       -0.02214
C         -0.35984        3.00050        0.03365
N          0.05095        4.06708        0.05126
C         -2.31421        1.59366       -0.17014
N         -3.11918        0.85808        0.00637
C         -2.96262       -0.23308        0.07488
N         -3.96614       -0.53844        0.95765
H         -4.71521        0.12820        1.10815
H         -4.15761       -1.51201        1.16927
C         -1.90464       -1.14763       -0.28633
C         -2.42406       -2.45678       -0.61991
N         -2.82287       -3.49787       -0.87703
C         -0.53042       -0.82787       -0.23020
C          0.39132       -1.88833       -0.36709
H          0.07686       -2.91346       -0.54487
N         -3.11367        2.62357       -0.59541
H         -4.11637        2.56173       -0.45692
H         -2.71250        3.54965       -0.69821
H          1.77825        1.68256        0.32186
H          2.77015       -3.58597       -0.45644
H          4.97872       -2.16177        0.03865
