27
Coordinates from ORCA-job ./opt_b97-3c_parallel
N          6.09550        0.27243       -0.00326
C          4.95765        0.16573       -0.00235
C          3.51978        0.04729       -0.00201
C          3.00601       -1.23515       -0.00127
C          1.68522       -1.65110       -0.00057
C          0.47129       -0.93141       -0.00097
C          0.35582        0.49708       -0.00139
C         -0.95213        1.04188       -0.00071
C         -2.05560        0.21891       -0.00028
C         -1.97424       -1.12415       -0.00050
N         -3.20337       -1.68984       -0.00039
C         -3.92887       -0.82594        0.00024
C         -3.43026        0.53091        0.00024
C         -4.19638        1.73557        0.00082
N         -4.64524        2.78649       -0.00008
H         -4.95506       -1.17479        0.00078
C         -0.71815       -1.72895       -0.00066
C         -0.72086       -3.17940       -0.00031
N         -0.70283       -4.32299        0.00034
H         -1.16392        2.10648       -0.00067
C          1.42046        1.44162       -0.00281
C          1.13862        2.86452       -0.00284
N          0.93200        3.98936       -0.00298
C          2.79976        1.22870       -0.00267
H          3.42042        2.12718       -0.00316
H          1.64759       -2.73463       -0.00025
H          3.73749       -2.04268       -0.00037
