26
Coordinates from ORCA-job ./opt_b97-3c_parallel
N          6.02681        0.00281       -0.00139
C          4.89041       -0.11846       -0.00076
C          3.45404       -0.25448       -0.00008
C          2.96047       -1.54793        0.00077
C          1.64107       -1.97063        0.00150
C          0.44924       -1.23898        0.00158
C         -0.68749       -2.07437        0.00197
C         -1.96525       -1.54110        0.00182
C         -2.10660       -0.19954        0.00136
C         -3.49550        0.03552        0.00095
C         -4.33999        1.18649        0.00019
N         -4.78542        2.23900        0.00104
C         -3.90276       -1.35304        0.00139
N         -3.14665       -2.19166        0.00184
H         -4.90078       -1.77492        0.00131
C         -1.03555        0.67485        0.00079
C          0.29270        0.17807        0.00096
C          1.34152        1.13421       -0.00011
C          1.03225        2.55035       -0.00075
N          0.80479        3.67022       -0.00136
C          2.72278        0.92502       -0.00045
H          3.33516        1.82857       -0.00116
H         -1.27939        1.73308        0.00003
H         -0.58742       -3.15822        0.00214
H          1.54635       -3.05506        0.00193
H          3.69866       -2.34852        0.00072
