28
Coordinates from ORCA-job ./opt_b97-3c_parallel
N         -6.29808       -1.00199        0.52551
C         -5.16999       -0.90440        0.37070
C         -3.74449       -0.77563        0.19132
C         -3.00810       -1.94329        0.25267
C         -1.64566       -2.10435        0.07625
C         -0.61674       -1.16597       -0.03631
N          0.58517       -1.79552       -0.07829
C          1.71388       -1.08062       -0.08896
C          1.70930        0.27870        0.04054
C          3.03366        0.65544        0.14559
C          3.60305        1.97013        0.30574
N          4.07206        3.00347        0.43877
C          3.79479       -0.49875        0.06312
C          3.01608       -1.71395       -0.09524
C          3.63312       -2.96755       -0.38783
N          3.85377       -4.08226       -0.50895
H          4.88001       -0.44568        0.11981
C          0.50109        0.98444        0.07978
C          0.56692        2.37415        0.48434
N          0.61901        3.46353        0.82844
C         -0.72638        0.25716       -0.07278
C         -1.95577        0.94543       -0.29101
C         -1.97502        2.27095       -0.87820
N         -2.01314        3.30538       -1.36341
C         -3.26681        0.48242       -0.14109
H         -4.05221        1.22499       -0.29706
H         -1.33532       -3.14897        0.10626
H         -3.56455       -2.86310        0.42757
