22
Coordinates from ORCA-job ./opt_b97-3c_parallel
N         -5.47669       -0.22753       -0.00205
C         -4.33794       -0.12871       -0.00168
C         -2.91836        0.03596       -0.00137
C         -2.03854       -1.09361       -0.00087
N         -0.97700       -1.38329       -0.00054
C         -0.07137       -0.75500       -0.00054
C          1.18955       -1.45377        0.00049
C          2.34253       -0.70421        0.00051
N          3.56618       -1.28854        0.00143
C          4.25653       -0.13035        0.00068
N          3.67033        1.04456       -0.00024
C          2.42322        0.70111       -0.00044
C          1.25574        1.43356       -0.00142
C          0.00983        0.69055       -0.00130
C         -1.03089        1.70454       -0.00143
C         -2.43316        1.33497       -0.00165
H         -3.14297        2.15730       -0.00198
H         -0.81248        2.76865       -0.00150
H          1.31229        2.51824       -0.00245
H          5.35638       -0.09642        0.00127
H          1.20579       -2.54122        0.00122
H         -2.52258       -2.08229       -0.00062
