26
Coordinates from ORCA-job ./opt_b97-3c_parallel
N         -5.69367       -1.67617       -0.00189
C         -4.59656       -1.35629       -0.00144
C         -3.21689       -0.93456       -0.00125
C         -2.26569       -1.94085       -0.00112
C         -0.88554       -1.82498       -0.00060
C         -0.05661       -0.70082       -0.00041
N          1.25708       -1.06424        0.00004
C          2.20829       -0.11829        0.00057
C          1.89966        1.20614        0.00067
C          3.06768        1.91514        0.00136
C          4.08844        0.97517        0.00162
C          3.62617       -0.40828        0.00108
C          4.49452       -1.53937        0.00258
N          5.03371       -2.54629        0.00095
H          5.12784        1.29308        0.00216
H          3.17947        2.99663        0.00166
C          0.58521        1.63210        0.00024
C         -0.45751        0.66929       -0.00044
C         -1.79117        1.15302       -0.00054
C         -2.03967        2.58071        0.00226
N         -2.23015        3.70814       -0.00133
C         -2.98936        0.43445       -0.00096
H         -3.89934        1.03697       -0.00039
H          0.41641        2.70517        0.00033
H         -0.37611       -2.78865       -0.00026
H         -2.64097       -2.96337       -0.00117
