28
Coordinates from ORCA-job ./opt_b97-3c_parallel
N         -5.64139       -2.15117        0.00047
C         -4.60085       -1.67952        0.00083
C         -3.30105       -1.04427        0.00044
C         -2.23592       -1.99904        0.00095
C         -0.90565       -1.77522        0.00091
C         -0.04879       -0.71694        0.00033
C         -0.48195        0.67499       -0.00151
N          0.47568        1.70099       -0.00183
C          1.81902        1.42415       -0.00109
N          2.71764        2.45914       -0.00100
C          3.93812        1.84178       -0.00054
C          3.73930        0.42580       -0.00052
C          4.84807       -0.46954       -0.00038
N          5.71550       -1.21309       -0.00020
C          2.32961        0.09677       -0.00033
C          1.38726       -0.98436        0.00253
C          2.02965       -2.26348        0.01124
N          2.53242       -3.28837       -0.01018
H          4.87535        2.42018       -0.00035
C         -1.82138        1.11649       -0.00146
C         -2.01286        2.55993       -0.00218
N         -2.12205        3.69748       -0.00034
C         -3.08336        0.34436       -0.00046
N         -4.05133        0.90357       -0.00025
H         -4.14196        1.91910       -0.00018
H         -5.00466        0.54011       -0.00001
H         -0.41135       -2.74184       -0.00078
H         -2.55240       -3.04061        0.00133
