29
Coordinates from ORCA-job ./opt_b97-3c_parallel
N          4.66729        2.68275       -0.08589
C          4.10639        1.68735       -0.05988
C          3.38479        0.44197       -0.02692
C          3.95196       -0.82670       -0.00000
C          2.92202       -1.76207        0.02706
C          1.72137       -1.06123        0.01696
C          2.00725        0.28203       -0.01627
C          1.00012        1.23232       -0.03374
C         -0.33612        0.80762       -0.01626
C         -1.28216        1.84040       -0.03346
C         -2.70975        1.67193       -0.01282
N         -3.41217        0.81939       -0.00455
C         -3.16288       -0.25588        0.00762
N         -4.41318       -0.80773       -0.01416
H         -4.52204       -1.80946       -0.13107
H         -5.22280       -0.21698       -0.16471
C         -1.97091       -1.06063        0.03269
C         -0.64732       -0.58312        0.01742
C          0.40857       -1.52734        0.03475
C          0.18767       -2.95644        0.06799
N          0.02616       -4.08771        0.09292
H         -2.22202       -2.11809        0.06120
N         -3.56561        2.73612        0.00341
H         -4.55791        2.58410        0.14648
H         -3.20256        3.67503        0.12279
H         -0.96999        2.88257       -0.06145
H          1.25141        2.29069       -0.05952
H          3.04217       -2.84281        0.05152
H          5.01589       -1.05047       -0.00026
