28
Coordinates from ORCA-job ./opt_b97-3c_parallel
N          6.07625        0.42039        0.12015
C          4.93639        0.47178        0.09355
C          3.50704        0.47086        0.05532
C          2.77294        1.68468        0.22659
C          1.42862        1.79028        0.10958
C          0.24558        0.89217        0.00669
C          0.45983       -0.54678        0.03536
N          1.65312       -1.26703       -0.13631
C          2.91030       -0.76392       -0.14079
N          3.17158       -1.83162       -0.29845
H          3.09615       -2.84600       -0.39225
H          4.17698       -1.64639       -0.32742
C         -0.76360       -1.32296        0.11976
C         -0.74148       -2.76075        0.25613
N         -0.70468       -3.89747        0.35310
C         -2.07999       -0.74163       -0.00079
N         -3.25987       -1.35426        0.07311
C         -4.14603       -0.28747       -0.03336
N         -5.24359       -0.40648       -0.00016
H         -5.78572       -1.26409        0.11350
H         -5.93134        0.34609       -0.05901
N         -3.56732        0.87931       -0.15783
C         -2.29204        0.64652       -0.12261
C         -1.06316        1.41730       -0.10849
C         -1.38565        2.82221       -0.19457
N         -1.65600        3.92864       -0.26928
H          1.07192        2.81416        0.07957
H          3.36171        2.58308        0.39292
