28
Coordinates from ORCA-job ./opt_b97-3c_parallel
N         -0.72079       -3.20973        1.44299
C         -1.05423       -2.26963        0.88737
C         -1.41201       -1.08254        0.16870
C         -2.78916       -0.67311        0.00529
C         -3.16836        0.49327       -0.60401
C         -2.62982        1.66169       -0.14063
N         -1.37117        2.09633        0.24677
C         -0.34022        1.17004        0.11170
C          0.97260        1.60167        0.51702
C          2.04800        0.77394        0.25639
N          3.33918        0.95936        0.51332
C          3.93615       -0.15699       -0.05823
N          5.03527       -0.19115        0.04814
H          5.73180        0.50763        0.30906
H          5.55811       -1.05014       -0.12486
N          3.12037       -0.97928       -0.66402
C          1.95757       -0.44521       -0.47113
C          0.72159       -0.88093       -0.91245
C         -0.43805       -0.17584       -0.40866
H          0.63093       -1.77908       -1.51837
H          1.09271        2.57891        0.97756
N         -3.14148        2.62208        0.05658
H         -2.97021        3.61937        0.19381
H         -4.15637        2.53293       -0.01233
H         -3.73356        0.47904       -1.53771
N         -3.74259       -1.12172        0.33777
H         -3.47622       -2.10417        0.28200
H         -4.70946       -1.11818        0.66452
