30
Coordinates from ORCA-job ./opt_b97-3c_parallel
N         -6.01159       -0.64322        0.00979
C         -4.87404       -0.52820        0.00710
C         -3.43318       -0.36718        0.00348
C         -2.72453       -1.55730        0.00184
C         -1.35659       -1.78201       -0.00086
C         -0.25962       -0.89878       -0.00381
C          1.02489       -1.51041       -0.00596
C          1.26721       -2.93913       -0.00527
N          1.47273       -4.06346       -0.00455
C          2.14841       -0.70448       -0.00882
C          2.10259        0.64246       -0.00974
N          3.34864        1.17510       -0.01271
C          4.08692        0.32491       -0.01351
N          5.43692        0.51306       -0.01646
H          6.07124       -0.27776       -0.01830
H          5.82292        1.45097       -0.01900
C          3.52774       -1.00561       -0.01131
H          4.05124       -1.95676       -0.01177
C          0.86963        1.28788       -0.00778
C          0.92319        2.73777       -0.00894
N          0.94789        3.88107       -0.00986
C         -0.34219        0.52836       -0.00461
C         -1.53947        1.27926       -0.00222
C         -2.88737        0.91835        0.00183
N         -3.75122        1.98736        0.00507
H         -4.75383        1.83249        0.00249
H         -3.39266        2.93662       -0.00171
H         -1.43972        2.35858       -0.00326
H         -1.15766       -2.84805       -0.00110
H         -3.32319       -2.46762        0.00362
