29
Coordinates from ORCA-job ./opt_b97-3c_parallel
N         -2.16133       -3.72447       -0.34971
C         -1.95582       -2.60440       -0.23733
C         -1.71082       -1.17857       -0.08877
C         -2.88244       -0.39317        0.10734
C         -2.96321        0.99825        0.20290
C         -1.90712        1.93601       -0.00771
N         -0.87234        1.60741        0.03473
C          0.04005        0.62851        0.02189
C          1.40163        0.99859        0.10055
C          1.81946        2.37820        0.22909
N          2.16421        3.46355        0.33007
C          2.36546        0.00203        0.05029
C          2.01001       -1.31178       -0.09410
C          3.15720       -2.08849       -0.11538
C          4.23761       -1.22374        0.02311
C          3.75066        0.07569        0.12400
H          4.34801        0.97650        0.24563
H          5.28485       -1.51454        0.05310
H          3.20503       -3.17072       -0.21216
C          0.68425       -1.70173       -0.17476
C         -0.35036       -0.73520       -0.09164
H          0.49791       -2.76688       -0.27472
N         -2.11617        3.22218       -0.40928
H         -3.05257        3.61083       -0.39981
H         -1.33191        3.86061       -0.48478
H         -3.91611        1.49040        0.38880
N         -4.10578       -1.00718        0.23566
H         -4.89464       -0.46274        0.56651
H         -4.13606       -2.01434        0.35718
