26
Coordinates from ORCA-job ./opt_b97-3c_parallel
N          6.24504        0.86504       -0.03546
C          5.15686        0.52055       -0.02719
C          3.78236        0.13111       -0.01374
C          2.91244        1.19807        0.05121
N          1.57940        1.39140        0.07913
C          0.64051        0.36772        0.02554
N         -0.55242        0.88386        0.04702
C         -1.66989        0.22144        0.00579
C         -1.67309       -1.21042       -0.09372
C         -2.87110       -1.87325       -0.14454
C         -3.63566       -0.74018       -0.05367
N         -4.72276       -0.93646       -0.07129
H         -5.33392       -0.11989       -0.07202
H         -5.33663       -1.75047       -0.06653
C         -2.99713        0.53553        0.03796
C         -3.49063        1.87327        0.14432
N         -3.93129        2.90577       -0.06761
H         -3.05598       -2.74047        0.48896
C         -0.35351       -1.79560       -0.11339
C          0.88923       -1.05752       -0.04688
C          2.09695       -1.68183       -0.02438
C          3.37900       -1.23994       -0.05460
H          4.18509       -1.96859       -0.09523
H          2.02882       -2.76786        0.01171
H         -0.40333       -2.87872       -0.01794
H          3.18309        2.26538        0.09115
