26
Coordinates from ORCA-job ./opt_b97-3c_parallel
N         -4.12155       -2.70272       -0.00423
C         -3.73155       -1.62839        0.00294
C         -3.20805       -0.29961       -0.00460
C         -1.86371        0.24020       -0.00463
C         -1.79892        1.60524       -0.00310
C         -3.07581        2.08938       -0.00238
C         -3.90866        0.97974       -0.00293
H         -4.98846        1.10623       -0.00202
H         -3.38013        3.13320       -0.00136
C         -0.58239        2.26533       -0.00293
C          0.58282        1.48426       -0.00399
C          1.78655        2.19875       -0.00544
C          3.09696        1.61119       -0.00880
N          3.54751        0.60422       -0.00903
C          2.96187       -0.33062       -0.00450
N          4.07012       -1.13837        0.03580
H          5.00264       -0.74416       -0.01464
H          3.96506       -2.14700        0.00181
C          1.59009       -0.79637       -0.00628
C          1.43902       -2.23880       -0.01243
N          1.33540       -3.37803       -0.01861
C          0.46914        0.06121       -0.00525
N         -0.76133       -0.53101       -0.00593
H          4.05951        2.11003       -0.00202
H          1.80073        3.28657       -0.00473
H         -0.54276        3.35239       -0.00222
