27
Coordinates from ORCA-job ./opt_b97-3c_parallel
N          5.56392        0.72604        0.01807
C          4.42466        0.63335       -0.00375
C          2.98018        0.51503       -0.01427
C          2.31137        1.73179        0.00266
C          0.95029        1.99287        0.00033
C         -0.14523        1.12569       -0.00659
C         -1.37657        1.80990        0.00017
C         -2.57180        1.11326        0.00303
N         -3.83080        1.60119        0.01118
C         -4.52028        0.70635        0.01428
C         -3.90281       -0.60011        0.01039
C         -2.54099       -0.23557        0.00128
C         -1.37022       -0.98098       -0.00824
C         -1.52373       -2.42011       -0.00237
N         -1.65619       -3.55556        0.01034
C         -0.12176       -0.29598       -0.01645
C          1.04209       -1.09001       -0.03792
C          2.39928       -0.75981       -0.04048
N          3.23387       -1.85118       -0.07185
H          4.22886       -1.71579        0.07495
H          2.84590       -2.77681        0.07308
H          0.89398       -2.16519       -0.05804
H         -4.38365       -1.57306        0.01423
H         -5.57129        0.96968        0.02094
H         -1.41605        2.89748        0.00483
H          0.72464        3.05765        0.01059
H          2.93673        2.62369        0.01782
