29
Coordinates from ORCA-job ./opt_b97-3c_parallel
N         -6.26394       -0.08873       -0.00022
C         -5.12078       -0.08003        0.00417
C         -3.67162       -0.08056        0.00228
C         -3.09985        1.18577       -0.00013
C         -1.76568        1.57068       -0.00086
C         -0.58448        0.80789       -0.00061
C         -0.53354       -0.61430        0.00005
N          0.65407       -1.27616       -0.00051
C          1.77905       -0.55174       -0.00143
C          1.84544        0.79795       -0.00173
N          3.12348        1.24390       -0.00216
C          3.73371        0.29643       -0.00215
N          5.09232        0.43037       -0.00244
H          5.69085       -0.38887       -0.00229
H          5.51923        1.35000       -0.00237
C          3.11256       -1.01180       -0.00169
C          3.57844       -2.36343       -0.00157
N          4.23205       -3.30108       -0.00205
C          0.65222        1.51810       -0.00138
C          0.75667        2.96316       -0.00152
N          0.82501        4.10410       -0.00159
C         -1.61256       -1.50394        0.00222
C         -2.99107       -1.30334        0.00412
N         -3.72537       -2.46438        0.00938
H         -4.73944       -2.42603       -0.00549
H         -3.25938       -3.36501       -0.00630
H         -1.32387       -2.55626        0.00325
H         -1.67554        2.65187       -0.00182
H         -3.79927        2.02118       -0.00096
