27
Coordinates from ORCA-job ./opt_b97-3c_parallel
N         -4.66758       -2.16547       -0.99472
C         -4.12712       -1.31682       -0.45256
C         -3.40516       -0.28139        0.21607
C         -3.81574        1.01136        0.35943
C         -2.77210        1.83315        0.32254
C         -1.58045        0.96792        0.13903
C         -1.98123       -0.35325        0.08337
C         -0.99270       -1.38350       -0.08147
C          0.38386       -0.94972       -0.06102
N          1.24961       -1.97284       -0.02257
C          2.59433       -2.27367        0.00065
N          3.67656       -1.41755       -0.05413
C          3.28683       -0.09139       -0.12986
C          2.22742        0.78210       -0.15692
C          2.91388        1.64907       -0.25831
N          3.18126        2.58140       -0.86696
C          0.76998        0.40554       -0.05996
C         -0.24709        1.37546        0.04769
C          0.03665        2.78607        0.16055
N          0.25864        3.90121        0.27298
H          4.36261       -0.33866       -0.13498
N          2.70061       -3.36575        0.08794
H          3.61700       -3.66556        0.41881
H          2.05300       -4.11733        0.32221
H         -1.27876       -2.40790       -0.30547
H         -2.91005        2.90770        0.42577
H         -4.84961        1.32360        0.49066
