28
Coordinates from ORCA-job ./opt_b97-3c_parallel
N         -4.80298       -1.16739        0.06574
C         -3.96253       -0.39323        0.04295
C         -2.91994        0.60217        0.01549
C         -3.17985        1.96818        0.00426
C         -1.96899        2.64309       -0.01845
C         -0.97261        1.68225       -0.02049
C         -1.52978        0.42822       -0.00092
C         -0.71235       -0.71001       -0.00005
C         -1.35255       -2.00950        0.02136
N         -1.83938       -3.04400        0.03870
C          0.70921       -0.55613       -0.01748
C          1.48169       -1.73635       -0.02232
C          2.85663       -1.92818       -0.03346
C          3.87874       -0.99771       -0.03555
C          3.77064        0.38240       -0.03241
N          4.94985        1.07469       -0.02636
H          5.80904        0.56769        0.15576
H          4.93110        2.06707        0.18067
C          2.60492        1.14110       -0.03599
C          1.25543        0.75947       -0.03056
C          0.39331        1.86807       -0.03520
H          0.77735        2.88633       -0.04787
H          2.79012        2.21445       -0.04192
H          4.88550       -1.41174       -0.03941
H          3.17977       -2.96682       -0.03731
H          0.97065       -2.69251       -0.01840
H         -1.83077        3.72162       -0.03067
H         -4.16461        2.42948        0.01325
