23
Coordinates from ORCA-job ./opt_b97-3c_parallel
N         -5.72209       -0.33504       -0.17597
C         -4.58245       -0.26082       -0.13262
C         -3.14784       -0.15119       -0.07417
C         -2.47113       -1.41047        0.00473
N         -1.38056       -1.48521       -0.01224
C         -0.17138       -0.91361       -0.02095
N          0.91476       -1.73100       -0.03947
C          2.14848       -1.19375       -0.03607
N          3.35159       -1.80740       -0.06339
C          4.16624       -1.02755       -0.05102
C          3.71224        0.34193       -0.00223
C          2.31493        0.15220        0.00133
C          1.25396        1.04576        0.02015
C          1.54793        2.45985        0.06635
N          1.78786        3.57634        0.11569
C         -0.05128        0.50115       -0.00571
C         -1.15795        1.38401       -0.02944
C         -2.53006        1.10088       -0.07582
H         -3.18989        1.96522       -0.11942
H         -0.95560        2.45062       -0.03182
H          4.30976        1.24762        0.01634
H          5.17627       -1.41858       -0.07920
H         -2.79475       -2.32515        0.48743
