25
Coordinates from ORCA-job ./opt_b97-3c_parallel
N          5.77209        1.11555       -0.15268
C          4.65270        0.89446       -0.10697
C          3.25947        0.57548       -0.03304
C          2.47033        1.70433       -0.04082
C          1.13297        1.79155       -0.02890
C          0.19062        0.78895       -0.02165
C         -1.21330        1.14064       -0.07919
C         -2.14419        0.12308       -0.11163
C         -1.86724       -1.25496       -0.06248
N         -3.03061       -2.00038       -0.11042
C         -4.09728       -1.21065       -0.18104
C         -3.56511        0.04690       -0.16537
C         -4.42547        1.10400        0.26019
N         -5.08308        1.96696        0.61406
H         -5.14690       -1.54114       -0.23528
N         -0.53901       -1.64050        0.03481
C          0.44975       -0.64509        0.06005
N          1.62779       -1.15974        0.15793
C          2.86086       -0.79676        0.08326
N          3.17216       -1.85347        0.14370
H          3.27079       -2.85688        0.30111
H          4.11870       -1.47342        0.17078
H         -1.55128        2.17569       -0.09147
H          0.74235        2.80819       -0.04070
H          2.98497        2.66695       -0.05811
