30
Coordinates from ORCA-job ./opt_b97-3c_parallel
N          6.03472        0.76741       -0.47892
C          4.90140        0.67585       -0.36386
C          3.47038        0.56360       -0.20407
C          2.74554        1.73164       -0.28730
C          1.38671        1.92418       -0.10222
C          0.31859        1.01003        0.03143
C         -0.97509        1.60207        0.12888
C         -1.20284        3.02607        0.28894
N         -1.38506        4.14527        0.43285
C         -2.11579        0.80946        0.09500
C         -2.01686       -0.53612       -0.08246
C         -3.30246       -1.16675       -0.19001
C         -4.14029        0.00292       -0.06394
N         -5.50037       -0.11746       -0.09958
H         -5.92908       -1.02902       -0.21867
H         -6.08925        0.69337        0.05737
C         -3.47498        1.27555        0.09979
H         -3.87414        2.18939        0.52893
H         -3.56548       -2.15945       -0.54275
C         -0.77596       -1.16492       -0.14536
C         -0.82499       -2.54236       -0.59926
N         -0.88278       -3.62003       -0.97733
C          0.43216       -0.41671        0.03593
C          1.65434       -1.11846        0.26859
C          1.65181       -2.44330        0.86122
N          1.67466       -3.47763        1.34633
C          2.97433       -0.68066        0.13969
H          3.74718       -1.43156        0.31593
H          1.16126        2.98301       -0.15518
H          3.31541        2.64164       -0.47592
