27
Coordinates from ORCA-job ./opt_b97-3c_parallel
N         -4.53802       -1.98734        0.32436
C         -3.90753       -1.04803        0.15658
C         -3.14866        0.15237       -0.02595
C         -3.76299        1.35898       -0.20922
C         -2.85230        2.31718       -0.33070
C         -1.62753        1.74200       -0.22884
C         -1.71417        0.34766       -0.04281
C         -0.62185       -0.50428        0.07648
C         -1.03342       -1.85483        0.34356
N         -0.96754       -2.36212        1.36668
C          0.72151        0.09550       -0.01094
C          0.80500        1.50526       -0.05369
N          1.94275        2.30230       -0.06397
C          3.13723        1.76930        0.33140
N          3.51398        0.64540        0.82807
C          3.15439       -0.42464        0.20537
N          4.19145       -0.81360        0.23438
H          3.99813       -1.53395       -0.45892
H          5.16862       -0.55128        0.12399
C          1.80058       -0.80813       -0.12069
C          1.71822       -2.14684       -0.63755
N          1.68031       -3.19909       -1.08274
H          3.97231        2.48573        0.32112
C         -0.34736        2.35616       -0.20033
H         -0.25376        3.43575       -0.28248
H         -3.05191        3.37274       -0.50178
H         -4.83884        1.51209       -0.26270
