29
Coordinates from ORCA-job ./opt_b97-3c_parallel
N         -5.40504       -2.05862        0.00074
C         -4.34476       -1.63113       -0.00934
C         -2.99981       -1.08280       -0.00829
C         -2.02547       -2.06757        0.00190
C         -0.65168       -1.94664        0.00267
C          0.15897       -0.81326       -0.00078
C          1.52679       -1.15920        0.00128
C          2.49109       -0.17115        0.00131
C          2.12898        1.14240        0.00024
C          3.27344        1.92492        0.00056
C          4.36172        1.05736        0.00162
C          3.87666       -0.24676        0.00221
C          4.67764       -1.44305        0.00282
N          5.32377       -2.38574        0.00322
H          5.40932        1.34922        0.00163
H          3.31413        3.01163       -0.00053
C          0.79944        1.52213       -0.00210
C         -0.24864        0.55511       -0.00395
C         -1.59278        1.03979       -0.01140
C         -1.76905        2.48956       -0.01281
N         -1.92310        3.62302       -0.01167
C         -2.81519        0.31242       -0.01830
N         -3.99014        1.04476       -0.04067
H         -4.88603        0.57206        0.01824
H         -3.96028        2.05760        0.01485
H          0.63441        2.59471       -0.00357
H          1.85002       -2.19866        0.00289
H         -0.14632       -2.91095        0.00727
H         -2.37850       -3.09874        0.00755
