28
Coordinates from ORCA-job ./opt_b97-3c_parallel
N         -5.96773       -0.61235       -0.00585
C         -4.82915       -0.51615       -0.00566
C         -3.39266       -0.38014       -0.00326
C         -2.66291       -1.55457       -0.00288
C         -1.28886       -1.73261       -0.00089
C         -0.22855       -0.80511        0.00155
C         -0.36032        0.61924        0.00235
N          0.76343        1.39690        0.00553
C          1.97964        0.84213        0.00712
C          2.18226       -0.49965        0.00619
C          3.57477       -0.83690        0.01119
C          4.13150        0.50132        0.00883
N          5.47596        0.73598       -0.00344
H          5.82717        1.68733        0.01691
H          6.12978       -0.03904        0.01580
C          3.18772        1.60100        0.01374
H          3.34775        2.67448        0.00509
H          4.07002       -1.80285        0.00388
C          1.08724       -1.35672        0.00360
C          1.37905       -2.77574        0.00595
N          1.60375       -3.89650       -0.00106
C         -1.57044        1.35862        0.00097
C         -1.50977        2.81164        0.00277
N         -1.48246        3.95456        0.00380
C         -2.89165        0.91073       -0.00159
H         -3.65562        1.69013       -0.00232
H         -1.04888       -2.79029       -0.00130
H         -3.24112       -2.47811       -0.00450
