24
Coordinates from ORCA-job ./opt_b97-3c_parallel
N          5.53194        0.38240        0.00146
C          4.39123        0.41191        0.00073
C          2.96209        0.48766        0.00034
C          2.31874        1.76524        0.00041
C          0.98817        2.00406        0.00015
C         -0.12507        1.23154       -0.00056
C         -1.44761        1.82990       -0.00068
C         -2.55533        0.98839       -0.00108
C         -2.57999       -0.43897       -0.00140
N         -3.86299       -0.94800       -0.00152
C         -4.67913        0.09630       -0.00137
C         -4.00318        1.24051       -0.00112
H         -4.52273        2.19687       -0.00091
H         -5.75455       -0.14012       -0.00142
N         -1.33489       -0.81737       -0.00151
C         -0.17159       -0.21871       -0.00103
C          0.93522       -1.06536       -0.00051
C          0.89171       -2.50426       -0.00057
N          0.53954       -3.59140       -0.00054
C          2.35986       -0.76021        0.00004
H          3.04606       -1.61042        0.00032
H         -1.59444        2.90822       -0.00040
H          0.77193        3.07085        0.00036
H          2.99029        2.61853        0.00069
