24
Coordinates from ORCA-job ./opt_b97-3c_parallel
N         -4.47417       -2.00894       -0.77935
C         -3.80478       -1.18722       -0.35213
C         -2.98326       -0.13318        0.15548
C         -1.56015       -0.05475        0.11305
N         -0.66395       -1.05926        0.12362
C          0.64446       -0.68684        0.07015
C          1.60573       -1.83834        0.08596
C          1.56173       -2.94424        0.14829
N          1.10941       -3.96424        0.40553
C          2.96907       -1.75177        0.00306
N          3.91870       -0.81032       -0.10524
C          3.51831        0.46740       -0.13199
N          2.32891        0.97111       -0.04982
C          1.05674        0.66572        0.00879
C          0.08392        1.68320        0.01838
C          0.41148        3.08924       -0.01456
N          0.65818        4.20518       -0.03090
C         -1.24434        1.27503        0.07047
C         -2.50495        2.05151        0.09595
C         -3.48401        1.14287        0.14730
H         -4.54334        1.38798        0.18051
H         -2.72887        3.11551        0.08276
H          4.23632        1.29578       -0.23105
H          4.00254       -2.12980       -0.04907
