29
Coordinates from ORCA-job ./opt_b97-3c_parallel
N         -5.83117       -1.21599       -0.01091
C         -4.72188       -0.94328        0.01493
C         -3.31609       -0.60096        0.00873
C         -2.48274       -1.76329        0.00735
C         -1.13580       -1.82968        0.00159
C         -0.07668       -0.97844        0.00086
C         -0.19073        0.47562       -0.00129
N          0.97441        1.26654       -0.00410
C          2.23049        0.70335       -0.00471
C          2.41121       -0.70086       -0.00215
C          3.86989       -0.43380       -0.00483
C          4.50589        0.77146       -0.00779
N          5.53145        1.18283       -0.00956
H          6.39324        0.63426       -0.00933
H          5.83527        2.15853       -0.01114
N          3.34336        1.51837       -0.00770
H          4.43041       -1.36873       -0.00413
C          1.26401       -1.54788        0.00061
C          1.66031       -2.91990        0.00197
N          2.01767       -4.00456        0.00265
C         -1.40490        1.19373       -0.00113
C         -1.28091        2.64393       -0.00537
N         -1.04169        3.76163       -0.00748
C         -2.80333        0.70876        0.00366
N         -3.62942        1.46186        0.00379
H         -3.55928        2.47899       -0.00119
H         -4.62887        1.25566        0.00102
H         -0.85303       -2.87904       -0.00125
H         -3.01451       -2.71271        0.00974
