28
Coordinates from ORCA-job ./opt_b97-3c_parallel
N         -5.35256       -1.92309        0.00713
C         -4.61417       -1.05357        0.09004
C         -3.54082       -0.12128       -0.01257
C         -2.12134        0.06505        0.01068
C         -1.63834        1.34563        0.08817
N         -0.31770        1.59062        0.09849
C          0.57990        0.55527        0.05036
C          1.95063        0.92912        0.05368
C          2.23399        2.36202        0.05194
N          2.47081        3.48170        0.04091
C          3.09521        0.10033        0.05389
C          3.15938       -1.28849        0.05080
C          2.13302       -2.21677        0.02727
N          2.51243       -3.53153        0.02888
H          3.48772       -3.76333       -0.12496
H          1.81550       -4.24655       -0.15006
C          0.76888       -1.96975       -0.00073
C          0.05775       -0.77005        0.00684
N         -1.28672       -0.98725       -0.02456
H          0.15350       -2.87019       -0.02139
H          4.16276       -1.71479        0.06645
N          4.34571        0.67639        0.07179
H          5.16232        0.09716       -0.08666
H          4.43044        1.67910       -0.06319
C         -2.58409        2.41427        0.18814
C         -3.50749        1.32206       -0.00453
H         -4.50754        1.75213       -0.03695
H         -2.54752        3.33659       -0.38345
