23
Coordinates from ORCA-job ./opt_b97-3c_parallel
N         -5.52573       -0.31655       -0.00171
C         -4.39094       -0.17933       -0.00170
C         -2.96370        0.01305       -0.00149
C         -2.18750       -1.19100       -0.00090
N         -1.09634       -1.28403       -0.00040
C          0.04525       -0.58189       -0.00015
C          1.25144       -1.30044        0.00072
C          2.46236       -0.61775        0.00106
N          3.71713       -1.11876        0.00206
C          4.41442       -0.22873        0.00208
C          3.81747        1.08831        0.00116
C          2.45648        0.73727        0.00049
C          1.29893        1.49849       -0.00040
C          0.06305        0.83405       -0.00070
C         -1.07516        1.65936       -0.00157
C         -2.42901        1.30189       -0.00190
H         -3.13951        2.12595       -0.00248
H         -0.89415        2.73200       -0.00202
H          1.36168        2.58423       -0.00079
H          4.30872        2.05584        0.00104
H          5.46089       -0.50930        0.00277
H          1.24469       -2.38819        0.00128
H         -2.52901       -2.21946       -0.00053
