24
Coordinates from ORCA-job ./opt_b97-3c_parallel
N         -5.67218       -0.46874       -0.01353
C         -4.54549       -0.28422       -0.00557
C         -3.12954       -0.09780        0.00767
C         -2.49591       -1.31087       -0.03947
N         -1.23608       -1.75150       -0.05449
C         -0.13975       -0.91111       -0.01607
N          0.86712       -1.73615       -0.04421
C          2.03091       -1.17327       -0.01682
C          2.35210        0.15601        0.04203
C          3.71414        0.29359        0.05283
C          4.27748       -0.90705        0.00804
C          3.29063       -1.83884       -0.03425
H          3.40973       -2.91756       -0.07231
H          5.34625       -1.11071        0.00090
H          4.25974        1.23489        0.08641
C          1.24740        1.09164        0.08410
C          1.74218        2.43528        0.15858
N          1.73780        3.38755       -0.47273
C         -0.03628        0.54135        0.05022
C         -1.12879        1.48866        0.08492
C         -2.53516        1.20184        0.06316
H         -3.20846        2.05470        0.09414
H         -0.88747        2.54619        0.13073
H         -2.89988       -2.33508       -0.08205
