27
Coordinates from ORCA-job ./opt_b97-3c_parallel
N         -5.22383       -1.18915        1.22227
C         -4.16735       -1.01356        0.82273
C         -2.84444       -0.81501        0.28347
C         -2.00499       -1.97568        0.34317
C         -0.90351       -2.11706       -0.42293
C          0.18293       -1.36124       -0.16229
C          1.45410       -2.02669        0.03267
C          2.65113       -1.34112        0.04650
C          2.65483        0.05891       -0.08023
N          3.92503        0.53931       -0.16081
C          4.53587       -0.65626       -0.04938
N          3.86785       -1.77605        0.09337
H          5.63577       -0.63256       -0.07564
C          1.40639        0.76325       -0.09932
C          1.44282        1.47060        1.16284
N          1.45624        2.04128        2.15341
C          0.13940        0.07784       -0.26101
C         -1.01866        0.80622       -0.56903
C         -0.76564        2.14725       -1.04893
N         -0.54218        3.07156       -1.68337
C         -2.40997        0.36869       -0.33574
N         -3.20684        1.12475       -0.52267
H         -3.05079        2.12526       -0.63542
H         -4.20294        1.00416       -0.34522
H          1.44739       -3.11223        0.07210
H         -0.90978       -2.79952       -1.26971
H         -2.40706       -2.85081        0.84638
