31
Coordinates from ORCA-job ./opt_b97-3c_parallel
N         -4.83027       -1.42536        0.59795
C         -4.12807       -0.55809        0.35126
C         -3.26163        0.55362        0.04784
C         -3.73952        1.83171       -0.22057
C         -2.65550        2.66110       -0.46318
C         -1.51917        1.87973       -0.34665
C         -1.86380        0.58767       -0.04564
C         -0.87253       -0.38846        0.12605
C         -1.28204       -1.64435        0.72297
N         -1.59257       -2.62839        1.21435
C          0.50723       -0.04799       -0.07656
C          0.82254        1.33644       -0.19821
C          2.07307        1.95114       -0.09677
C          3.29870        1.41587        0.26569
C          3.63215        0.07682        0.36111
C          2.86224       -1.02890        0.02650
N          3.60226       -2.18863       -0.01366
H          3.17978       -3.02165       -0.41101
H          4.61393       -2.12256       -0.01735
C          1.47350       -1.08473       -0.22701
C          1.04151       -2.32535       -0.86000
N          0.71745       -3.29315       -1.37674
H          4.67139       -0.12467        0.62163
N          4.30421        2.30953        0.51313
H          5.14946        1.97299        0.96166
H          4.06281        3.28682        0.63831
H          2.08372        3.03601       -0.20247
C         -0.20200        2.27612       -0.39716
H          0.01491        3.33215       -0.54900
H         -2.69213        3.72678       -0.67668
H         -4.78432        2.13377       -0.22425
