25
Coordinates from ORCA-job ./opt_b97-3c_parallel
N         -6.17333       -0.06080       -0.03020
C         -5.03285       -0.11693       -0.01216
C         -3.60558       -0.14182        0.01048
C         -3.11112        1.13042       -0.09959
N         -1.90772        1.70701       -0.13997
C         -0.72422        0.99793       -0.05998
N          0.17563        1.94217       -0.13814
C          1.39805        1.52528       -0.07537
C          2.61558        2.27045       -0.14507
C          3.77687        1.53452       -0.04698
C          3.24412        0.26911        0.06529
C          4.38044       -0.60092        0.12761
N          4.65891       -1.33678       -0.70145
C          1.81936        0.25698        0.06034
C          0.88483       -0.83874        0.15008
C          1.49452       -2.12954        0.28906
N          1.52305       -2.88027       -0.57204
C         -0.45496       -0.43393        0.08842
C         -1.44069       -1.49049        0.17595
C         -2.86965       -1.36177        0.13548
H         -3.44470       -2.28128        0.21130
H         -1.08984       -2.51231        0.28099
H          4.59005        1.87816        0.59243
H          2.59639        3.34993       -0.26241
H         -3.63203        2.09640       -0.19480
