25
Coordinates from ORCA-job ./opt_b97-3c_parallel
N          5.59199        0.50763        0.71648
C          4.47253        0.55153        0.49133
C          3.08046        0.61680        0.16763
C          2.36266        1.84539        0.31411
C          1.17814        2.07430       -0.29295
C          0.05701        1.35066       -0.07351
C         -1.19000        2.06381        0.10594
C         -2.41319        1.42777        0.07666
C         -2.47788        0.03297       -0.08648
N         -3.76971       -0.37756       -0.21977
C         -4.32454        0.84365       -0.09410
N         -3.60699        1.92344        0.10089
H         -5.42215        0.90247       -0.15000
C         -1.26285       -0.73282       -0.09084
C         -1.45115       -1.68432        0.98242
N         -1.58955       -2.45168        1.81861
C          0.02750       -0.08743       -0.19722
C          1.13341       -0.88871       -0.47520
C          1.11382       -2.28223       -0.81776
N          0.88135       -3.13225       -1.54670
C          2.55075       -0.56613       -0.32797
H          3.26466       -1.37296       -0.50061
H         -1.14045        3.14693        0.16740
H          1.13559        2.87327       -1.03009
H          2.91482        2.68311        0.73001
