25
Coordinates from ORCA-job ./opt_b97-3c_parallel
N          6.10399        0.78842       -0.00016
C          5.00672        0.46903       -0.00023
C          3.62918        0.04941       -0.00035
C          2.67900        1.12172       -0.00054
N          1.59117        1.00330       -0.00052
C          0.55567        0.14902       -0.00046
C          0.76534       -1.25102       -0.00041
C          2.02462       -1.87903       -0.00033
C          3.30416       -1.30826       -0.00024
H          4.13726       -2.00826       -0.00019
H          2.02243       -2.96702       -0.00038
C         -0.34201       -2.11566       -0.00055
C         -1.63077       -1.59833       -0.00057
N         -2.79370       -2.28080       -0.00072
C         -3.57384       -1.46624       -0.00080
C         -3.20978       -0.06552       -0.00075
C         -4.29043        0.86768       -0.00087
N         -4.88708        1.84236        0.00045
C         -1.81064       -0.25256       -0.00053
C         -0.75911        0.65540       -0.00054
C         -1.04063        2.07309       -0.00076
N         -1.27860        3.19105       -0.00103
H         -4.55625       -1.92435       -0.00090
H         -0.20549       -3.19514       -0.00068
H          2.85916        2.19047       -0.00033
