24
Coordinates from ORCA-job ./opt_b97-3c_parallel
N          3.71687        2.78467        0.02952
C          3.37766        1.69749       -0.05750
C          2.90443        0.35224       -0.14661
C          1.51645        0.02783       -0.17226
C          1.46454       -1.37038       -0.08874
C          2.72644       -1.87120       -0.10275
C          3.57774       -0.84231       -0.13978
H          4.66085       -0.93888       -0.16373
H          2.99801       -2.92453       -0.09422
C          0.18436       -2.00045        0.05026
C         -0.96455       -1.21936        0.05043
N         -2.13340       -1.89533        0.12175
C         -3.27597       -1.11333        0.09255
N         -3.89539        0.11981        0.01462
C         -2.96893        1.14082       -0.07320
N         -3.51929        2.09256       -0.15516
H         -3.11555        3.02483       -0.23743
H         -4.51700        2.19576       -0.33689
N         -1.67447        1.21910       -0.08389
C         -0.90261        0.17678       -0.02908
C          0.36938        0.86609       -0.00351
H          0.69353        1.46610        0.84613
H         -3.93637       -1.99144        0.17014
H          0.15381       -3.08393        0.12518
