29
Coordinates from ORCA-job ./opt_b97-3c_parallel
N          1.92672        3.93558        0.13666
C          1.88138        2.79454        0.07320
C          1.84450        1.33990       -0.00475
C          3.11372        0.70653       -0.12080
N          4.25291        1.47081       -0.20915
H          5.15994        1.02334       -0.13702
H          4.19165        2.47138       -0.04944
C          3.37156       -0.66568       -0.16748
C          2.41369       -1.71552       -0.03508
N          1.34211       -1.53991       -0.06439
C          0.32696       -0.66819       -0.05502
C         -0.99058       -1.17893       -0.09190
C         -1.26514       -2.59704       -0.17791
N         -1.47020       -3.71941       -0.25369
C         -2.04946       -0.27970       -0.03875
C         -1.75363        1.03603        0.05088
N         -0.52765        1.57674        0.07285
C          0.55039        0.73618        0.01155
C         -3.00441        1.67567        0.08874
C         -3.86890        0.51960        0.00755
N         -5.22523        0.66019        0.01249
H         -5.64287        1.58265       -0.03824
H         -5.81574       -0.14620       -0.15908
N         -3.38560       -0.49876       -0.05804
H         -3.27138        2.72500        0.16186
N          2.72789       -2.98225        0.35905
H          2.00512       -3.69323        0.39117
H          3.69618       -3.28180        0.38364
H          4.38914       -1.03830       -0.27165
