22
Coordinates from ORCA-job ./opt_b97-3c_parallel
N          5.52603        0.31453        0.04416
C          4.39145        0.17759        0.03246
C          2.96382       -0.01436        0.01649
C          2.18703        1.18939       -0.00693
N          1.09362        1.24607       -0.00039
C         -0.06645        0.57777        0.00106
N         -1.22966        1.28585        0.01010
C         -2.40700        0.62625        0.00695
N         -3.66892        1.11002        0.02135
C         -4.39649        0.24675        0.01465
C         -3.80419       -1.07025       -0.00974
C         -2.43932       -0.73130       -0.01123
C         -1.29580       -1.50853       -0.01701
C         -0.06514       -0.84046       -0.00717
C          1.07658       -1.66247        0.00075
C          2.43023       -1.30391        0.01708
H          3.14116       -2.12730        0.03120
H          0.89771       -2.73559       -0.00075
H         -1.36438       -2.59373       -0.02555
H         -4.30092       -2.03456       -0.02183
H         -5.44173        0.53117        0.02832
H          2.52279        2.21507       -0.10243
