26
Coordinates from ORCA-job ./opt_b97-3c_parallel
N          5.59450        1.03316        0.00334
C          4.47002        0.82894       -0.00169
C          3.05300        0.55745       -0.00142
C          2.21552        1.65579       -0.00110
C          0.83145        1.70335       -0.00027
C         -0.14480        0.68535       -0.00007
C         -1.50339        1.13826        0.00032
C         -1.89733        2.53451        0.00057
N         -2.19218        3.63924        0.00066
C         -2.55060        0.22075        0.00018
C         -2.27075       -1.09356       -0.00004
C         -3.52577       -1.72900       -0.00041
C         -4.39894       -0.57819       -0.00035
N         -3.88915        0.42933        0.00006
H         -5.48173       -0.53673       -0.00092
H         -3.79431       -2.78039       -0.00115
C         -0.99090       -1.59818       -0.00014
C          0.12466       -0.72349       -0.00020
C          1.40317       -1.34849       -0.00029
C          1.51228       -2.79549        0.00036
N          1.61492       -3.93421        0.00100
C          2.67532       -0.77381       -0.00089
H          3.51384       -1.47317       -0.00098
H         -0.91300       -2.68097       -0.00033
H          0.50442        2.73689        0.00016
H          2.70378        2.62971       -0.00137
