24
Coordinates from ORCA-job ./opt_b97-3c_parallel
N          6.21305        0.21168        0.13682
C          5.07212        0.15161        0.10492
C          3.63404        0.09254        0.05782
C          3.10729       -1.23310       -0.06694
N          2.03345       -1.43618       -0.02832
C          0.76640       -1.00959        0.01262
N         -0.21782       -1.94516        0.03678
C         -1.50675       -1.55778        0.05496
N         -2.61759       -2.32067        0.09577
C         -3.48794       -1.60663        0.09601
C         -3.24510       -0.18298        0.04815
C         -4.42915        0.61617        0.04546
N         -4.96157        1.49258       -0.45907
C         -1.83271       -0.23775        0.02812
C         -0.87770        0.76985        0.00770
C         -1.32671        2.14300       -0.03002
N         -1.67944        3.22889       -0.07506
C          0.48206        0.38158        0.02042
C          1.47905        1.38563        0.06039
C          2.87489        1.26296        0.09910
H          3.42951        2.19694        0.16890
H          1.15545        2.42161        0.09140
H         -4.42583       -2.14912        0.13308
H          3.52492       -2.08018       -0.59853
