24
Coordinates from ORCA-job ./opt_b97-3c_parallel
N         -4.25647       -1.55146        0.15876
C         -3.51207       -0.68693        0.08873
C         -2.58896        0.41690        0.01349
C         -2.98483        1.74922       -0.01701
C         -1.84838        2.54566       -0.05591
C         -0.75668        1.69389       -0.04543
C         -1.19213        0.38439       -0.01215
C         -0.27281       -0.67243       -0.00360
C         -0.71269       -2.05010        0.01066
N         -1.04657       -3.14368        0.01769
C          1.10513       -0.36530       -0.01842
N          2.02949       -1.35729       -0.02240
C          3.10628       -1.60381       -0.03416
C          4.06507       -0.52882        0.00822
C          3.86799        0.89848        0.01643
N          2.84319        1.31447       -0.01090
C          1.53159        0.98678       -0.02950
C          0.58957        2.01867       -0.05405
H          0.90622        3.05957       -0.06887
H          4.52177        1.66664        0.41117
H          5.08242       -0.89669        0.11490
H          3.24555       -2.61942       -0.38499
H         -1.82204        3.63138       -0.07989
H         -4.01155        2.10900       -0.00336
