24
Coordinates from ORCA-job ./opt_b97-3c_parallel
N          6.05130        0.75774        0.00317
C          4.91101        0.67789        0.00233
C          3.47294        0.60134        0.00116
C          2.92548       -0.72267        0.00231
N          1.85845       -0.97110        0.00116
C          0.59910       -0.50384       -0.00022
C          0.33132        0.88977       -0.00073
N         -0.94208        1.36140       -0.00120
C         -1.92944        0.45263       -0.00136
C         -3.31896        0.68521       -0.00220
C         -4.12504        1.86386       -0.00310
N         -4.64234        2.88308       -0.00254
C         -3.72496       -0.70364       -0.00223
N         -2.96669       -1.53999       -0.00162
C         -1.77804       -0.89512       -0.00107
C         -0.48314       -1.41190       -0.00048
C         -0.28177       -2.84424        0.00020
N         -0.13397       -3.97845        0.00111
H         -4.72360       -1.12414       -0.00280
C          1.32103        1.88785       -0.00025
C          2.71596        1.77310        0.00048
H          3.26797        2.71093        0.00054
H          0.95719        2.91374       -0.00077
H          3.44602       -1.67334        0.00289
