25
Coordinates from ORCA-job ./opt_b97-3c_parallel
N         -6.01336       -0.72384       -0.00664
C         -4.89210       -0.50236        0.00023
C         -3.47454       -0.23563        0.00090
C         -3.09607        1.10115        0.00077
C         -1.81906        1.64785        0.00063
C         -0.56959        1.02204        0.00067
C          0.51817        1.91248        0.00025
C          1.79638        1.38412        0.00029
C          2.00093        0.03479        0.00060
N          0.98002       -0.84109        0.00091
C         -0.29940       -0.37202        0.00088
C         -1.24950       -1.39470        0.00115
C         -2.63734       -1.34413        0.00116
H         -3.12685       -2.31693        0.00113
H         -0.84976       -2.40821        0.00121
C          3.39396       -0.36257        0.00064
C          4.15734       -1.56932        0.00077
N          4.58581       -2.62894        0.00087
C          3.95938        0.98229        0.00045
C          3.01563        1.99897        0.00012
H          3.20903        3.06883        0.00000
H          5.01968        1.22276        0.00061
H          0.37759        2.99141        0.00003
H         -1.81250        2.73620        0.00037
H         -3.90478        1.83041        0.00064
