25
Coordinates from ORCA-job ./opt_b97-3c_parallel
N          5.68282        1.62489       -0.01718
C          4.58306        1.31250       -0.02267
C          3.19727        0.91312       -0.01490
C          2.26395        1.93668       -0.03472
C          0.88182        1.84635       -0.03744
C          0.03803        0.73556       -0.00015
N         -1.27392        1.09567       -0.00859
C         -2.21503        0.13686        0.04385
C         -1.86790       -1.19100        0.11176
N         -0.57984       -1.57585        0.10779
C          0.41225       -0.63664        0.04706
C          1.73316       -1.14298        0.03546
C          1.92887       -2.58168        0.05278
N          2.10205       -3.71177        0.06050
C          2.94636       -0.45207        0.00654
H          3.84203       -1.07532        0.00695
C         -2.90999       -2.16786        0.19495
C         -3.67731       -0.95481        0.05663
C         -3.60454        0.48590        0.03471
C         -4.50982        1.58949        0.05319
N         -5.30267        2.40988       -0.01403
H         -4.71835       -1.26851        0.00935
H         -3.01365       -3.04196       -0.43953
H          0.38558        2.81594       -0.06536
H          2.65713        2.95209       -0.05472
