26
Coordinates from ORCA-job ./opt_b97-3c_parallel
N         -6.15276       -0.66774       -0.39665
C         -5.01937       -0.56531       -0.28835
C         -3.60467       -0.42801       -0.11201
C         -2.97082       -1.64892       -0.15963
C         -1.65353       -1.87196       -0.15967
C         -0.53062       -0.88515       -0.06876
N          0.67577       -1.50628       -0.18366
C          1.72917       -0.66726       -0.10670
C          1.61918        0.67622        0.05932
N          0.44660        1.32781        0.18907
C         -0.63357        0.50665        0.12339
N         -1.78310        1.08971        0.28078
C         -3.04099        0.87312        0.10872
N         -3.24531        1.95192        0.21118
H         -4.22367        1.79250        0.44348
H         -2.97017        2.82387        0.65879
C          2.95308        1.17915        0.04897
C          3.41415        2.46647       -0.36516
N          3.81261        3.48411       -0.69991
C          3.91266        0.20230       -0.12561
C          3.12925       -0.93331       -0.19626
C          3.74352       -2.15922        0.21080
N          4.25274       -3.12047        0.56028
H          4.84013        0.22041        0.44394
H         -1.29401       -2.89674       -0.23725
H         -3.59159       -2.54153       -0.23247
