25
Coordinates from ORCA-job ./opt_b97-3c_parallel
N         -6.03309       -0.81688        0.00210
C         -4.89453       -0.71637        0.00159
C         -3.45832       -0.61165        0.00097
C         -2.94233        0.72490        0.00057
N         -1.88242        0.99919        0.00025
C         -0.61384        0.55759       -0.00031
C         -0.31094       -0.82818       -0.00017
N          0.97392       -1.27287       -0.00078
C          1.97119       -0.36993       -0.00128
C          1.73922        0.97857       -0.00107
C          2.95499        1.60787       -0.00135
C          3.91429        0.60672       -0.00174
C          3.37031       -0.74531       -0.00168
C          4.11816       -1.96179        0.00009
N          4.55352       -3.01853        0.00065
H          4.97116        0.86276       -0.00212
H          3.13785        2.68005       -0.00114
C          0.44609        1.48720       -0.00056
C          0.22913        2.91693       -0.00123
N          0.07490        4.04944        0.00023
C         -1.27762       -1.84846        0.00035
C         -2.67476       -1.76596        0.00095
H         -3.20548       -2.71610        0.00140
H         -0.89005       -2.86591        0.00036
H         -3.48565        1.66279        0.00002
