30
Coordinates from ORCA-job ./opt_b97-3c_parallel
N         -5.97012        0.08788       -0.63199
C         -4.84775        0.06148       -0.42139
C         -3.44170       -0.01909       -0.14985
C         -2.79157       -1.29874       -0.38116
N         -1.53677       -1.61939       -0.00976
C         -0.59367       -0.72107        0.28629
N          0.45798       -1.44305        0.56574
C          1.56857       -0.86211        0.21757
C          2.90972       -1.36392        0.29561
C          3.20867       -2.66660        0.79981
N          3.40482       -3.71734        1.20178
C          3.89696       -0.52278       -0.17573
C          3.12835        0.54533       -0.57529
C          3.91819        1.60405       -1.12644
N          3.99187        2.49470       -0.41279
C          1.74177        0.35096       -0.34785
C          0.64557        1.22909       -0.66073
C          0.58342        2.50535       -1.30289
N          0.68023        3.43023       -0.63872
C         -0.60731        0.63083       -0.21937
C         -1.46774        1.31973        0.69852
C         -2.88720        1.07954        0.51425
N         -3.32475        1.99313        0.96289
H         -3.14725        2.99579        0.89704
H         -4.30116        1.90130        1.24535
H         -1.08345        2.16825        1.27096
H          4.81820       -0.37840        0.38746
N         -2.89985       -2.34558       -0.71431
H         -3.91145       -2.22168       -0.67408
H         -2.74373       -3.31257       -0.99693
