27
Coordinates from ORCA-job ./opt_b97-3c_parallel
N          4.66812        2.18917        0.23065
C          4.03845        1.23766        0.16475
C          3.23097        0.04827        0.08312
C          1.86467       -0.01612        0.04851
C          1.51000       -1.33434       -0.03510
N          0.22661       -1.73568       -0.08730
C         -0.75121       -0.78902       -0.06642
N         -2.02675       -1.19368       -0.10139
C         -3.07255       -0.87763       -0.09495
N         -3.86167       -1.93997        0.23583
H         -4.82948       -1.78868        0.49560
H         -3.42901       -2.81974        0.49464
C         -3.56454        0.46170       -0.20513
C         -2.77287        1.60928       -0.14154
N         -3.42520        2.80867       -0.21569
H         -2.91463        3.66572       -0.03423
H         -4.43822        2.82728       -0.17429
C         -1.37482        1.65128       -0.02244
C         -0.44312        0.59581        0.00067
C          0.90377        0.98201        0.07216
H          1.19745        2.02774        0.12878
H         -0.95118        2.65282        0.02780
H         -4.64407        0.54095       -0.31647
C          2.63294       -2.24731       -0.06642
C          3.69801       -1.25639        0.01473
H          4.76665       -1.45785        0.01993
H          2.68142       -3.18387       -0.61247
