28
Coordinates from ORCA-job ./opt_b97-3c_parallel
N          1.79434        4.31220       -0.26348
C          1.94572        3.17989       -0.22955
C          2.16165        1.74142       -0.19181
C          3.49669        1.43097       -0.42872
C          4.12811        0.20937       -0.36041
C          3.57900       -0.99533        0.02086
C          2.24385       -1.34426        0.21766
C          2.17260       -2.64838        0.84840
N          2.13866       -3.66745        1.36530
C          1.07032       -0.56282        0.00812
C          1.05298        0.87137       -0.02815
N         -0.13372        1.53770        0.07340
C         -1.29700        0.88634        0.12341
C         -1.36765       -0.46496       -0.03086
C         -2.71185       -0.77257       -0.09734
C         -3.35200       -2.05415       -0.25809
N         -3.87693       -3.06044       -0.39026
C         -3.40828        0.41776        0.03162
C         -2.56215        1.58795        0.18387
C         -3.04025        2.89988        0.48080
N         -3.32893        3.99201        0.65348
H         -4.49600        0.42371        0.01236
C         -0.19750       -1.22370       -0.12232
C         -0.34315       -2.59795       -0.56008
N         -0.45625       -3.67421       -0.92849
H          4.32057       -1.78050        0.17167
H          5.20285        0.21605       -0.52868
H          4.16534        2.26302       -0.64995
