32
Coordinates from ORCA-job ./opt_b97-3c_parallel
N         -5.08394       -2.04573       -0.01755
C         -4.14637       -1.39193       -0.00812
C         -2.95955       -0.57745        0.02030
C         -3.16270        0.78368        0.44165
N         -2.57218        1.70963        0.30523
C         -1.51811        1.77876       -0.01843
N         -1.68277        2.76426       -0.95524
H         -0.87473        3.10328       -1.46591
H         -2.51043        3.34899       -0.93034
C         -0.35209        0.92285        0.02109
C          0.91377        1.49584        0.18958
N          1.09931        2.83648        0.39740
H          2.00552        3.15719        0.71897
H          0.28735        3.40780        0.60653
C          2.14255        0.74125        0.18839
C          2.04690       -0.66736       -0.08110
C          3.36140       -1.24615       -0.01614
N          3.96237       -2.47212       -0.04899
H          4.92902       -2.54502        0.24670
H          3.37805       -3.29654        0.03433
C          4.23306       -0.12875        0.21603
C          3.51659        1.10092        0.39318
H          3.96645        1.94164        0.91477
H          5.31514       -0.20150        0.26361
C          0.71847       -1.21089       -0.26321
N          0.75196       -2.55578       -0.52029
H          1.64543       -2.96390       -0.77378
H         -0.08397       -2.99754       -0.88508
C         -0.46595       -0.46622       -0.16023
C         -1.70412       -1.13974       -0.23238
H         -1.70526       -2.20547       -0.44548
H         -4.09474        1.32892        0.53903
