32
Coordinates from ORCA-job ./opt_b97-3c_parallel
N          4.92127        2.01999       -0.88021
C          4.16762        1.43035       -0.25493
C          3.13255        0.44711       -0.15787
C          3.44586       -0.91326        0.20945
C          2.59346       -2.04075        0.48712
C          1.45285       -1.20858        0.21533
C          1.73283        0.10147       -0.09290
C          0.69593        1.01762       -0.28832
C          1.08948        2.33492       -0.74585
N          1.41469        3.36041       -1.13303
C         -0.65856        0.60964       -0.15593
C         -1.71469        1.56543       -0.07819
C         -1.61135        2.99609        0.13896
N         -1.54003        4.11884        0.34004
C         -3.11995        1.24502        0.07909
N         -3.77933        0.45410       -0.31447
C         -3.38613       -0.49638       -0.71602
C         -2.24829       -1.28446       -0.31097
C         -2.67524       -2.62173       -0.66255
N         -3.02112       -3.66844       -0.96448
C         -0.93436       -0.79357       -0.07952
C          0.13925       -1.68178        0.19935
C         -0.04019       -3.07275        0.56638
N         -0.15647       -4.16660        0.87336
H         -4.34920       -0.80996       -1.10855
N         -3.93924        1.69057        1.08604
H         -4.93000        1.47842        1.03789
H         -3.67686        2.53241        1.58822
H          2.68006       -2.71860        1.33277
N          4.68669       -1.47557        0.33858
H          4.77613       -2.38501        0.77822
H          5.49752       -0.86477        0.33411
