25
Coordinates from ORCA-job ./opt_b97-3c_parallel
N         -3.41364       -2.90704       -0.00625
C         -3.38711       -1.76432       -0.00371
C         -2.72936       -0.48570       -0.00232
C         -3.74465        0.46131       -0.00668
C         -3.64438        1.89855       -0.00406
C         -2.52224        2.69463        0.00540
C         -1.17065        2.23668        0.01016
C         -0.68481        0.95852        0.00045
C         -1.30120       -0.26526        0.00098
N         -0.57104       -1.45801        0.00345
C          0.76814       -1.36539        0.00298
N          1.44584       -2.55708        0.00416
C          2.76587       -2.21064        0.00255
C          2.87541       -0.78673        0.00095
C          4.17240       -0.19058        0.00447
N          5.20027        0.30620       -0.01042
C          1.56093       -0.16123       -0.00023
C          0.69296        0.99608       -0.00947
C          1.76079        1.95424       -0.01295
N          2.58023        2.75006       -0.01322
H          3.59199       -2.93889        0.00406
H         -0.48239        3.07723        0.02088
H         -2.66772        3.77159        0.01010
H         -4.60780        2.40100       -0.00711
H         -4.78632        0.13994       -0.01107
