25
Coordinates from ORCA-job ./opt_b97-3c_parallel
N         -3.20305       -3.08034        0.00517
C         -2.76900       -2.02275        0.00349
C         -2.23660       -0.67645        0.00179
C         -3.25642        0.29467        0.00144
C         -3.14318        1.68515        0.00019
C         -1.92991        2.44186       -0.00055
N         -0.97042        1.92335       -0.00056
C         -0.22036        0.81271       -0.00018
C          1.18524        0.95534       -0.00081
C          1.82872        2.25142       -0.00153
N          2.35197        3.26797       -0.00202
C          1.96899       -0.19102       -0.00074
C          1.39748       -1.43596       -0.00009
C          2.40064       -2.39149       -0.00036
C          3.61290       -1.70958       -0.00111
C          3.34961       -0.34337       -0.00132
H          4.09109        0.45236       -0.00187
H          4.59932       -2.16689       -0.00147
H          2.26700       -3.47068       -0.00001
C          0.02332       -1.60508        0.00077
C         -0.82634       -0.47360        0.00077
H         -0.35191       -2.62443        0.00130
H         -1.80126        3.51778       -0.00000
H         -4.03628        2.30537       -0.00003
H         -4.28254       -0.07064        0.00220
