30
Coordinates from ORCA-job ./opt_b97-3c_parallel
N          2.66410        3.90989        0.23808
C          2.64649        2.76937        0.18875
C          2.55167        1.33792        0.14410
C          1.30291        0.63502        0.01167
N          0.20676        1.40847       -0.13337
C         -1.00922        0.83129       -0.13981
N         -2.05892        1.72325       -0.36169
C         -3.35971        1.26176       -0.22115
N         -4.30698        0.29240        0.08316
C         -3.76735       -0.93532        0.44373
N         -4.63796       -1.58627        0.66987
H         -5.61449       -1.44680        0.94633
H         -4.52801       -2.60438        0.68921
C         -2.45734       -1.33070        0.46011
C         -1.19620       -0.58769        0.13703
C          0.06635       -1.31009        0.06962
C         -0.06139       -2.29863       -0.95575
N         -0.22543       -3.08632       -1.76452
C          1.31298       -0.73843        0.04460
C          2.68062       -0.84315        0.10335
C          3.20011       -2.17954        0.03992
N          3.30716       -2.64762       -0.99844
C          3.47918        0.33845        0.20781
N          4.57049        0.48615        0.29430
H          5.20901       -0.25619        0.00628
H          5.16196        1.26359        0.59093
H         -2.20784       -2.37102        0.67443
N         -3.94780        2.16661       -0.47578
H         -3.63017        3.13268       -0.59284
H         -4.94865        2.21083       -0.68276
