25
Coordinates from ORCA-job ./opt_b97-3c_parallel
N         -1.47465       -4.21185       -0.00177
C         -1.59376       -3.07450       -0.00256
C         -1.69715       -1.63213       -0.00257
C         -3.05475       -1.17602       -0.00263
C         -3.49764        0.09779       -0.00415
C         -2.95295        1.33234       -0.00240
C         -1.56319        1.68330       -0.00255
C         -1.35287        3.11427       -0.00180
N         -1.15129        4.23915       -0.00182
C         -0.52359        0.73365       -0.00293
N          0.49910        1.23163       -0.00275
C          1.67235        0.56476       -0.00273
C          1.63302       -0.80432       -0.00286
N          0.39288       -1.33514       -0.00323
C         -0.58874       -0.76494       -0.00319
C          3.00453       -1.35674       -0.00235
C          3.62628       -0.12740       -0.00214
N          4.71171        0.09260       -0.00198
H          5.19577        0.99104       -0.00240
H          5.44497       -0.61724       -0.00122
N          2.92232        1.02280       -0.00234
H          3.56949       -2.28652       -0.00192
H         -3.64529        2.17170       -0.00186
H         -4.58526        0.14091       -0.00608
H         -3.81020       -1.95864       -0.00213
