26
Coordinates from ORCA-job ./opt_b97-3c_parallel
N         -3.16700       -3.34803       -0.07089
C         -2.73857       -2.28932       -0.01787
C         -2.21498       -0.93737        0.05161
C         -3.23810       -0.04636        0.36899
C         -3.21815        1.33033        0.40335
C         -2.17419        2.15691        0.05270
C         -0.83636        1.84487       -0.16939
C         -0.15566        2.98569       -0.75330
N          0.35836        3.88575       -1.23543
C         -0.17042        0.59623       -0.01121
C          1.25292        0.60268        0.15566
C          2.04274        1.71890        0.63637
N          2.67661        2.58344        1.03348
C          1.95410       -0.58420        0.03157
C          1.37012       -1.76876       -0.20871
N          2.26183       -2.77959       -0.28551
C          3.28110       -2.32446       -0.11642
C          3.32463       -0.90230        0.13479
H          4.19085       -0.28121        0.33942
H          4.09148       -3.04303       -0.14781
C         -0.00729       -1.83666       -0.24909
C         -0.82062       -0.68393       -0.07376
H         -0.40899       -2.83645       -0.38260
H         -2.45885        3.20565       -0.03921
H         -4.16638        1.81752        0.62007
H         -4.22146       -0.47220        0.57037
