32
Coordinates from ORCA-job ./opt_b97-3c_parallel
N         -4.20798       -3.06028        0.75422
C         -3.65997       -2.05753        0.74153
C         -3.05526       -0.84819        0.27774
C         -3.48934        0.49535       -0.02457
N         -4.82901        0.67612       -0.23186
H         -5.20103        1.61827       -0.28534
H         -5.46642       -0.07931        0.00018
C         -2.78435        1.74261       -0.18535
C         -1.56128        0.99628       -0.05640
C         -1.71606       -0.34075        0.17374
C         -0.60738       -1.16689        0.17790
C          0.72225       -0.68673        0.04412
C          1.73783       -1.68542       -0.09216
C          1.33926       -3.08996       -0.10021
N          1.04120       -4.19264       -0.10533
C          3.12060       -1.50757       -0.32129
C          3.85260       -0.34119       -0.20733
C          3.41782        0.90772        0.16812
C          2.12369        1.39662        0.29465
C          2.16128        2.71355        0.90326
N          2.21280        3.74264        1.39841
C          0.88943        0.73641        0.03721
C         -0.28043        1.54048       -0.16078
C         -0.24230        2.89914       -0.67259
N         -0.22876        3.96084       -1.09646
H          4.23076        1.61055        0.35420
H          4.93099       -0.42320       -0.33966
N          3.91887       -2.58682       -0.62806
H          3.52933       -3.52282       -0.57685
H          4.92727       -2.48199       -0.60877
H         -0.84857       -2.21927        0.28232
H         -3.00671        2.49444       -0.93737
