24
Coordinates from ORCA-job ./opt_b97-3c_parallel
N          4.38909        2.58327       -0.02749
C          3.82669        1.59408        0.07527
C          3.05330        0.39524        0.01681
C          1.70374       -0.08774        0.02926
C          1.49080       -1.44994        0.12165
N          0.24930       -1.97566        0.13073
C         -0.79989       -1.11874        0.05170
C         -2.06924       -1.70705        0.05421
C         -3.31589       -0.99522       -0.02785
N         -3.68133        0.04650       -0.04301
C         -3.01838        0.92712       -0.07021
N         -3.98200        1.89534       -0.04261
H         -4.95252        1.63950        0.10079
H         -3.72030        2.86822        0.07025
C         -1.61140        1.23044       -0.09535
C         -0.58167        0.28462       -0.03025
N          0.67937        0.78521       -0.04560
H         -1.37604        2.29095       -0.15846
H         -4.32222       -1.39765       -0.02616
H         -2.18300       -2.78743        0.11447
C          2.62933       -2.31233        0.21082
C          3.27157       -1.02927        0.07395
H          4.34417       -1.20358        0.01832
H          2.82531       -3.17087       -0.42301
