28
Coordinates from ORCA-job ./opt_b97-3c_parallel
N          5.48688        1.70706       -0.00510
C          4.40965        1.32576       -0.00329
C          3.06012        0.80531       -0.00119
C          2.25589        1.92428       -0.00091
C          0.83165        1.98220        0.00107
C         -0.09255        0.96044        0.00281
N         -1.37608        1.51936        0.00449
C         -2.49105        0.71226        0.00624
C         -2.34895       -0.69701        0.00617
C         -3.82758       -0.77266        0.00830
C         -4.72440        0.25369        0.00952
N         -5.83004        0.26840        0.01116
H         -6.48168       -0.51882        0.01257
H         -6.41747        1.10358        0.01140
N         -3.76266        1.24686        0.00803
H         -4.15092       -1.81352        0.00889
C         -1.07699       -1.33988        0.00448
C          0.11462       -0.48936        0.00285
C          1.38837       -1.21900        0.00145
C          1.36364       -2.66587        0.00202
N          1.30587       -3.80709        0.00242
C          2.71300       -0.60476       -0.00015
N          3.62445       -1.24436       -0.00093
H          3.59776       -2.26330       -0.00033
H          4.61062       -0.98581       -0.00337
H         -1.03961       -2.42169        0.00448
H          0.45818        3.00507        0.00117
H          2.71056        2.91631       -0.00212
