27
Coordinates from ORCA-job ./opt_b97-3c_parallel
N         -1.65038       -4.13147       -0.02454
C         -1.70705       -2.99000       -0.01176
C         -1.80021       -1.54277        0.00150
C         -3.13420       -1.14085       -0.03260
C         -3.67316        0.12877       -0.04116
C         -3.00922        1.33669       -0.02567
C         -1.64197        1.59526        0.01365
C         -1.37695        3.02502        0.01147
N         -1.18923        4.15345        0.00718
C         -0.55504        0.68582        0.05522
N          0.66676        1.29867        0.10593
C          1.80768        0.59683        0.14917
C          1.81828       -0.76809        0.14126
C          3.09329       -1.41736        0.18420
C          3.61672       -0.07139        0.12311
N          4.97517       -0.05197       -0.03076
H          5.49521       -0.91523        0.08099
H          5.46959        0.82565        0.08743
C          3.07135        1.26508        0.20047
H          3.37178        2.10115       -0.42334
H          3.40903       -2.23913       -0.45103
C          0.60900       -1.44163        0.09004
C         -0.62654       -0.74359        0.04763
H          0.67924       -2.52454        0.08650
H         -3.67085        2.20257       -0.04678
H         -4.75913        0.18405       -0.06905
H         -3.88498       -1.93099       -0.05745
