24
Coordinates from ORCA-job ./opt_b97-3c_parallel
N         -5.66884       -0.27387       -0.01278
C         -4.54178       -0.08556       -0.01583
C         -3.12331        0.16661       -0.01200
C         -2.30938       -1.01179       -0.02022
N         -1.21516       -1.01688       -0.01949
C         -0.08577       -0.29126       -0.00384
C         -0.11562        1.12723        0.02158
N          1.03123        1.86021        0.05436
C          2.20843        1.20900        0.05436
C          3.48863        1.87792        0.11251
C          4.34168        0.70064        0.04637
C          3.63000       -0.48955        0.00782
C          2.29984       -0.15587        0.01517
C          1.16027       -0.94912       -0.01123
C          1.27932       -2.38944       -0.03257
N          1.38802       -3.52758       -0.04151
H          4.05044       -1.49196       -0.03086
H          5.42884        0.68546        0.03550
H          3.72082        2.88748       -0.21069
C         -1.29878        1.88895        0.01903
C         -2.63767        1.47438        0.00278
H         -3.37953        2.27056        0.00610
H         -1.16440        2.96857        0.03165
H         -2.61637       -2.05107        0.00054
