28
Coordinates from ORCA-job ./opt_b97-3c_parallel
N         -6.16050       -0.17375       -0.05171
C         -5.01703       -0.17998       -0.05193
C         -3.56822       -0.20114       -0.03941
C         -3.01996       -1.47919        0.00272
C         -1.69037       -1.87482        0.04428
C         -0.51727       -1.12226        0.04693
N          0.61217       -1.87844        0.11822
C          1.80362       -1.25137        0.12111
C          1.89604        0.11746        0.04172
N          0.79432        0.88964       -0.02429
C         -0.42652        0.28962       -0.01581
C         -1.48602        1.19916       -0.06633
C         -2.86846        1.01359       -0.06803
N         -3.58817        2.18351       -0.10450
H         -3.10812        3.06077        0.06365
H         -4.58878        2.14701        0.06176
H         -1.17552        2.24383       -0.10447
C          3.20690        0.69680        0.03633
C          3.65015        2.05511        0.06821
N          4.56660        2.73900        0.06998
C          3.63510       -0.68597        0.07342
N          4.99357       -0.81492       -0.04494
H          5.57060        0.01882        0.01185
H          5.42690       -1.71221        0.14406
C          3.02491       -1.98962        0.21343
H          3.28089       -2.86950       -0.36867
H         -1.55621       -2.95480        0.08335
H         -3.72970       -2.30521        0.01366
