23
Coordinates from ORCA-job ./opt_b97-3c_parallel
N         -3.54566       -2.85217        0.20444
C         -3.12984       -1.79169        0.12959
C         -2.56426       -0.47634        0.04404
C         -3.55380        0.48382        0.11110
C         -3.40598        1.84714        0.05381
C         -2.24961        2.57531       -0.06076
N         -0.94064        2.30699       -0.13800
C         -0.43980        1.01709       -0.14272
N          0.85639        1.09805       -0.21017
C          1.66431        0.08874       -0.11903
C          1.13078       -1.23273       -0.11001
N          2.04217       -2.20013        0.00735
C          3.24513       -1.51582        0.06589
C          3.01372       -0.10196       -0.00031
C          4.07587        0.84712        0.08047
N          4.90037        1.63284        0.16618
H          4.19478       -2.06362        0.16662
C         -0.29747       -1.42609       -0.14446
C         -1.14420       -0.24868       -0.08543
H         -0.46377       -2.45641       -0.45624
H         -2.39991        3.66596       -0.08631
H         -4.32497        2.42448        0.10879
H         -4.58414        0.14519        0.21337
