26
Coordinates from ORCA-job ./opt_b97-3c_parallel
N         -1.12722       -3.17800       -1.35796
C         -1.56478       -2.85536       -0.34892
C         -1.58743       -1.42669       -0.20712
C         -2.97419       -1.44579       -0.06177
N         -3.85371       -0.40612        0.22549
C         -3.42382        0.89868        0.16149
N         -4.40332        1.28822        0.50672
H         -5.30973        0.84316        0.67219
H         -4.56457        2.27036        0.73927
C         -2.34460        1.60592       -0.26366
C         -1.08878        1.08407       -0.15261
N         -0.20072        2.10274       -0.20949
C          1.14917        1.79226       -0.17011
N          2.05052        2.81547       -0.30882
C          3.27000        2.21139       -0.16792
C          3.06941        0.81698        0.08047
C          4.18073       -0.02997        0.36774
N          5.05384       -0.71600        0.63129
C          1.66157        0.46628        0.01777
C          0.74144       -0.64772       -0.03405
C          1.50519       -1.85594        0.09663
N          1.36101       -2.16650        1.18806
C         -0.66455       -0.30189       -0.12214
H          4.25517        2.70384       -0.19266
H         -2.51038        2.50483       -0.85959
H         -3.90549       -2.03461       -0.01572
