26
Coordinates from ORCA-job ./opt_b97-3c_parallel
N         -3.02517       -3.22817        0.00128
C         -2.84515       -2.09907       -0.00601
C         -2.62054       -0.66733       -0.00136
C         -3.82953        0.03305       -0.00022
C         -4.06989        1.39573        0.00106
C         -3.14651        2.42149        0.00125
C         -1.76508        2.33237        0.00110
C         -0.91886        1.22076        0.00070
N          0.38809        1.60781        0.00093
C          1.35663        0.68067        0.00048
C          1.07258       -0.64979        0.00013
C          2.26141       -1.32675        0.00010
C          2.45175       -2.75386       -0.00008
N          2.61777       -3.88451       -0.00026
C          3.26444       -0.36950        0.00033
C          2.76992        1.00171        0.00056
C          3.59197        2.16872        0.00118
N          4.12103        3.18158        0.00126
H          4.30952       -0.67061        0.00038
C         -0.23611       -1.10044       -0.00020
C         -1.29624       -0.15728       -0.00014
H         -0.38912       -2.17562       -0.00040
H         -1.27229        3.30448        0.00144
H         -3.55657        3.42908        0.00164
H         -5.11524        1.69630        0.00100
H         -4.73924       -0.56707       -0.00092
