26
Coordinates from ORCA-job ./opt_b97-3c_parallel
N          3.31874        3.15006       -0.00051
C          3.02650        2.04484       -0.00023
C          2.67758        0.63796        0.00016
C          3.82338       -0.16181       -0.00039
C          3.94952       -1.53956       -0.00021
C          2.94389       -2.48470        0.00046
C          1.57506       -2.28004        0.00123
C          0.82564       -1.10137        0.00147
N         -0.50783       -1.37503        0.00213
C         -1.36269       -0.34494        0.00246
C         -1.01448        0.95858        0.00216
N         -2.07839        1.78967        0.00253
C         -2.94888        1.07116        0.00291
N         -4.19759        1.62378        0.00302
H         -4.31586        2.63046        0.00293
H         -5.02193        1.03225        0.00322
C         -2.77225       -0.36755        0.00303
C         -3.63369       -1.50820        0.00325
N         -4.56582       -2.17022        0.00299
C          0.33585        1.27253        0.00143
C          1.31449        0.24157        0.00104
H          0.58439        2.32959        0.00123
H          1.00216       -3.20715        0.00152
H          3.26797       -3.52297        0.00027
H          4.96622       -1.92637       -0.00087
H          4.78066        0.35957       -0.00102
