24
Coordinates from ORCA-job ./opt_b97-3c_parallel
N         -2.13373       -2.53491       -1.23762
C         -2.20266       -2.04936       -0.20374
C         -1.85094       -0.66836       -0.03019
C         -3.10747       -0.06312        0.03838
C         -3.40318        1.33292        0.18547
C         -2.47953        2.34114        0.20360
N         -1.15338        2.37476        0.10439
C         -0.26545        1.38251        0.01486
N          0.91897        1.90013       -0.03125
C          1.98492        1.16947       -0.07266
C          1.88213       -0.24839        0.01011
C          3.13952       -0.77614        0.00186
C          3.96854        0.25427       -0.10098
C          3.32236        1.41557       -0.15094
H          3.78623        2.39540       -0.24295
H          5.05206        0.15984       -0.13944
H          3.42724       -1.82414        0.06701
C          0.64955       -0.90062        0.06419
C          0.80203       -2.32297        0.20129
N          0.68493       -2.68064        1.28151
C         -0.53546       -0.04077        0.02457
H         -2.93088        3.34109        0.30082
H         -4.45842        1.58173        0.25805
H         -4.02688       -0.65152        0.00103
