29
Coordinates from ORCA-job ./opt_b97-3c_parallel
N         -2.95196       -3.61962       -0.01071
C         -2.66849       -2.51179       -0.01669
C         -2.29679       -1.11583       -0.01527
C         -3.47958       -0.29442       -0.00332
N         -3.75984        0.77393       -0.01086
C         -3.04159        1.61019       -0.00693
N         -3.90564        2.66803        0.01427
H         -3.55042        3.60969        0.13761
H         -4.90003        2.51111        0.13633
C         -1.61404        1.78829       -0.01223
C         -0.66631        0.75617       -0.01859
C          0.67102        1.16924       -0.02170
C          1.70330        0.23711       -0.04451
C          1.41349       -1.10885       -0.06886
C          2.53204       -1.99986       -0.12839
C          3.35364       -0.81627       -0.01588
N          4.68090       -1.11734        0.13592
H          4.99348       -2.06996       -0.00936
H          5.36334       -0.36992        0.05160
C          3.08941        0.60552       -0.04998
C          3.78549        1.85154       -0.09982
N          4.26911        2.88723       -0.04749
H          2.65770       -2.91363        0.44332
C          0.09157       -1.54777       -0.04970
C         -0.97451       -0.62819       -0.02510
H         -0.08926       -2.61955       -0.06107
H          0.91285        2.22982       -0.01062
H         -1.30336        2.83148       -0.02062
H         -4.51944       -0.59724       -0.06243
