28
Coordinates from ORCA-job ./opt_b97-3c_parallel
N          5.29091        1.02859       -0.18583
C          4.26137        0.53781       -0.10482
C          2.95543       -0.09403       -0.01993
C          3.05333       -1.47122        0.16074
C          2.04998       -2.41829        0.17533
C          0.68733       -2.23068        0.04613
C         -0.05060       -1.04795       -0.01296
C         -1.43726       -1.29120       -0.05910
C         -2.32649       -0.23123       -0.02433
C         -1.88988        1.02796        0.07929
C         -3.01319        1.89732        0.17953
N         -3.46521        0.85836        0.10868
C         -3.74912       -0.22967       -0.03757
N         -4.72342       -1.15835       -0.24989
H         -4.46440       -2.06280       -0.62732
H         -5.67676       -0.84632       -0.39467
H         -3.06096        2.89306        0.60396
C         -0.53512        1.32526        0.07494
C          0.43594        0.29235       -0.01325
C          1.79335        0.70139       -0.10750
N          2.02353        2.03843       -0.34884
H          1.25815        2.58538       -0.72697
H          2.96025        2.31341       -0.62466
H         -0.27493        2.37609        0.16351
H         -1.83690       -2.30229       -0.10253
H          0.12442       -3.16242        0.04417
H          2.37732       -3.44979        0.28242
H          4.05704       -1.88256        0.26374
