24
Coordinates from ORCA-job ./opt_b97-3c_parallel
N         -5.53539       -0.34427       -0.20077
C         -4.39888       -0.39186       -0.09475
C         -2.97221       -0.46742       -0.00131
C         -2.44575       -1.74955       -0.03715
C         -1.03428       -2.08610       -0.01564
C          0.03712       -1.19794        0.00241
N          1.28413       -1.80780       -0.04968
C          2.42284       -1.01943        0.01007
N          3.74876       -1.37480        0.04102
C          4.50174       -0.22224        0.13261
N          3.62906        0.85030        0.15983
C          2.31787        0.40528        0.06561
C          1.09359        1.03420        0.00883
C          1.20816        2.06791       -0.39721
N          1.22706        3.19245       -0.60490
C         -0.03821        0.24753        0.08343
N         -1.05124        0.67917        0.22879
C         -2.14801        0.69886        0.13866
N         -2.35315        1.78349        0.20377
H         -2.16502        2.77882        0.31212
H         -3.36570        1.67718        0.24811
H          5.58809       -0.40281        0.16477
H         -0.81850       -3.15075       -0.05553
H         -3.13058       -2.59159       -0.10192
