23
Coordinates from ORCA-job ./opt_b97-3c_parallel
N         -5.90403       -0.28357        0.05470
C         -4.76898       -0.15131        0.02297
C         -3.35497        0.04626        0.00377
C         -2.62677       -1.12378       -0.05541
N         -1.34380       -1.54691       -0.06606
C         -0.26255       -0.73661       -0.04010
N          0.94412       -1.36075       -0.03635
C          2.07106       -0.62012       -0.03095
N          3.32881       -1.05912       -0.01410
C          4.02833        0.09202       -0.01945
N          5.10159       -0.17854        0.02147
H          5.52747       -1.07887        0.24494
H          5.87722        0.47636       -0.08239
C          3.40703        1.31937       -0.05144
C          2.04053        0.75483       -0.04003
N          0.86932        1.41996       -0.03613
C         -0.26587        0.67502       -0.02851
C         -1.44460        1.56932        0.00532
C         -2.77570        1.34862        0.05097
H         -3.46134        2.18853        0.11437
H         -1.12611        2.61122        0.00174
H          3.97461        2.24732       -0.07002
H         -3.00701       -2.15619       -0.09691
