26
Coordinates from ORCA-job ./opt_b97-3c_parallel
N         -4.52909       -1.85232       -0.31249
C         -3.77269       -0.99873       -0.22458
C         -2.82735        0.05958       -0.07337
C         -3.31066        1.39485        0.14883
C         -2.40601        2.41910        0.29525
C         -1.28079        1.65500        0.17685
N         -0.04283        2.17571        0.23679
C          1.00868        1.28761        0.09782
N          2.13691        2.08596        0.12931
C          3.31507        1.40880       -0.06999
C          3.90034        0.21086       -0.32332
C          3.29203       -0.96150        0.02819
N          3.93871       -1.83846        0.20333
H          4.95404       -1.91080        0.14118
H          3.58693       -2.78980        0.09587
C          1.87974       -1.21165        0.21233
C          0.93156       -0.14770       -0.08633
C         -0.41198       -0.70272       -0.22948
C         -0.80189       -2.05581       -0.51960
N         -1.00597       -2.87516        0.25188
C         -1.47624        0.26527       -0.05234
H          1.58645       -2.20985        0.53084
H          4.96886        0.21529       -0.54599
H          4.03583        2.23751        0.00533
H         -2.52118        3.34085       -0.27199
H         -4.38264        1.56735        0.19270
