34
Coordinates from ORCA-job ./opt_b97-3c_parallel
N         -5.49372       -0.17554        0.50577
C         -4.38418        0.00301        0.30137
C         -2.97513        0.21803        0.05397
C         -2.74332        1.48908       -0.57801
N         -1.91690        2.21645       -0.46736
C         -0.91697        1.97169       -0.06710
N         -0.74722        3.10824        0.67782
H          0.15306        3.27618        1.11287
H         -1.32196        3.91804        0.47117
C         -0.05127        0.80842       -0.02544
C          1.33703        0.98848       -0.13392
N          1.93738        2.21190       -0.27179
H          1.36861        3.03894       -0.41454
H          2.94095        2.26404       -0.40686
C          2.30513       -0.07983       -0.08638
C          1.78293       -1.41527       -0.05621
C          2.87719       -2.34687       -0.04652
C          4.02558       -1.52181       -0.28701
C          3.74101       -0.13539       -0.05028
N          4.79099        0.66810        0.28943
H          4.59174        1.52822        0.78831
H          5.69930        0.24030        0.43192
H          5.00471       -1.90894       -0.55233
H          2.89310       -3.28580       -0.59482
C          0.34737       -1.55406        0.03274
N          0.04402       -2.87555       -0.17068
H         -0.90785       -3.10036       -0.44122
H          0.77958       -3.48458       -0.51026
C         -0.58091       -0.49300        0.10187
C         -1.97136       -0.73771        0.29762
N         -2.39341       -1.93905        0.81433
H         -1.69114       -2.54916        1.22109
H         -3.33497       -1.99593        1.18767
H         -3.33136        1.97747       -1.34635
