27
Coordinates from ORCA-job ./opt_b97-3c_parallel
N         -0.88324       -4.40306       -0.09825
C         -1.09256       -3.28203       -0.07303
C         -1.30904       -1.86644       -0.04277
C         -2.66125       -1.65941       -0.04553
N         -3.47596       -0.60127        0.01542
C         -3.03832        0.71192        0.04586
N         -4.11455        0.97635        0.10390
H         -5.10627        0.74380        0.18148
H         -4.07129        1.98799        0.23818
C         -1.71565        1.30379       -0.02704
C         -1.75184        2.73655       -0.03767
N         -1.82189        3.87633       -0.04146
C         -0.44156        0.57597       -0.04692
C          0.77108        1.40521       -0.09388
C          2.04716        0.87122       -0.07610
C          2.19321       -0.52243       -0.01640
N          3.48140       -0.83383        0.03381
C          4.05271        0.43400       -0.01280
N          5.14271        0.60713        0.02076
H          5.66281        1.47600       -0.10456
H          5.84214       -0.11198        0.20722
N          3.21149        1.43620       -0.09036
C          1.06894       -1.40181        0.01916
C         -0.27276       -0.86842       -0.01244
H          1.45939       -2.32964        0.43701
H          0.69224        2.48515       -0.13927
H         -3.51017       -2.36217       -0.06717
