27
Coordinates from ORCA-job ./opt_b97-3c_parallel
N         -4.81667       -1.09977       -0.00091
C         -3.95400       -0.35014       -0.00059
C         -2.88411        0.61599       -0.00003
C         -3.09710        1.98739        0.00031
C         -1.85918        2.73878        0.00171
C         -0.92819        1.63770        0.00050
N          0.39732        1.81502        0.00090
C          1.21744        0.73119        0.00091
C          2.56279        1.11796        0.00219
C          3.73765        0.37314        0.00373
N          4.90737        1.08194        0.00805
H          4.88904        2.09585       -0.00691
H          5.79815        0.59769       -0.00606
C          3.86263       -1.00591        0.00252
C          2.85108       -1.94841        0.00073
C          1.47426       -1.76908        0.00029
C          0.69515       -0.59419        0.00049
C         -0.72293       -0.74995        0.00006
C         -1.37217       -2.04452       -0.00006
N         -1.86619       -3.07558        0.00010
C         -1.51559        0.40256        0.00030
H          0.96566       -2.72688       -0.00005
H          3.18509       -2.98366        0.00033
H          4.87449       -1.40744        0.00329
H          2.72743        2.19611        0.00263
H         -1.68405        3.80970       -0.00225
H         -4.10776        2.38917       -0.00009
