23
Coordinates from ORCA-job ./opt_b97-3c_parallel
N          6.02643        0.67902       -0.00916
C          4.89939        0.49443       -0.00532
C          3.49470        0.22253       -0.00293
C          2.73495        1.38068       -0.00304
C          1.29727        1.51869       -0.00193
C          0.33340        0.52817       -0.00093
N         -0.97987        1.00778       -0.00120
C         -1.95724        0.02535       -0.00033
C         -3.36247        0.17833       -0.00037
C         -4.01371        1.44886       -0.00147
N         -4.56535        2.44892       -0.00234
C         -3.97083       -1.04412        0.00074
N         -2.96407       -1.91714        0.00141
C         -1.69505       -1.35999        0.00082
N         -0.45578       -1.73917        0.00099
C          0.54853       -0.90624        0.00026
C          1.74258       -1.55853        0.00113
C          3.02756       -1.13092       -0.00094
H          3.81143       -1.88388       -0.00087
H          1.68572       -2.64820        0.00309
H         -5.03516       -1.32358        0.00106
H          0.95224        2.54989       -0.00259
H          3.26355        2.33213       -0.00448
