23
Coordinates from ORCA-job ./opt_b97-3c_parallel
N          4.03600        2.59616        0.28459
C          3.53136        1.57804        0.16694
C          2.88288        0.30005        0.02809
C          1.53633        0.05714        0.04446
C          1.35306       -1.29242       -0.11293
C          2.58426       -2.04091       -0.25399
C          3.51274       -0.92366       -0.14608
H          4.59738       -0.98106       -0.19120
H          2.71670       -2.92798       -0.86450
N          0.13387       -1.86656       -0.13343
C         -0.95527       -1.06288       -0.00114
N         -2.20126       -1.60721       -0.00825
C         -3.21972       -1.15426        0.08697
N         -3.52267       -0.07760        0.19200
C         -2.99099        0.90957        0.22681
N         -3.62598        1.99571       -0.29593
H         -3.07538        2.79562       -0.58552
H         -4.53583        1.87157       -0.72465
N         -1.90426        1.16687        0.25262
C         -0.81975        0.35079        0.14884
C          0.45792        0.91688        0.18157
H          0.59983        1.98828        0.30068
H         -3.71499       -1.72481        0.85795
