32
Coordinates from ORCA-job ./opt_b97-3c_parallel
N         -4.58226       -2.83931       -0.91603
C         -4.08425       -1.81555       -1.01814
C         -3.36881       -0.84374       -0.25203
C         -3.60664        0.54454        0.05983
N         -4.89167        0.97204        0.24807
H         -5.07787        1.96812        0.28795
H         -5.65361        0.35169       -0.00534
C         -2.78418        1.70883        0.26876
C         -1.66141        0.82706        0.09119
C         -1.98114       -0.48942       -0.15797
C         -0.97427       -1.43612       -0.24740
C          0.36984       -1.06683       -0.14417
C          1.25828       -2.14862       -0.18055
C          2.66424       -2.07401        0.10064
N          3.43151       -1.29844       -0.05987
C          3.20822       -0.23216       -0.23796
N          4.52174        0.06797       -0.51206
H          5.24104       -0.63811       -0.39997
H          4.81007        1.03667       -0.59903
C          2.09987        0.70123       -0.11997
C          2.56808        2.04039       -0.42445
N          2.94975        3.08569       -0.68854
C          0.73504        0.30441       -0.01579
C         -0.32316        1.24101        0.17493
C         -0.11818        2.61665        0.58106
N          0.01829        3.69878        0.92377
N          3.31374       -3.02032        0.84088
H          4.31120       -2.94195        1.00558
H          2.84374       -3.87855        1.10524
H          0.90502       -3.17167       -0.29754
H         -1.24661       -2.48079       -0.38528
H         -2.88794        2.42496        1.07928
