32
Coordinates from ORCA-job ./opt_b97-3c_parallel
N         -6.04902       -0.66136        0.00755
C         -4.91338       -0.52818        0.00060
C         -3.46109       -0.36899       -0.00062
C         -2.72355       -1.56066       -0.00064
C         -1.34557       -1.72941       -0.00032
C         -0.27455       -0.81990       -0.00023
C         -0.39607        0.60237       -0.00032
N          0.74754        1.35444       -0.00001
C          1.96311        0.80023        0.00019
C          2.14241       -0.54906        0.00004
C          3.50791       -0.75967        0.00006
C          4.24309       -2.00003       -0.00014
N          4.84113       -2.97382       -0.00030
C          4.10814        0.48890        0.00022
C          3.17093        1.59876        0.00032
C          3.53914        2.97760        0.00202
N          3.68166        4.11133        0.00123
H          5.19234        0.57823        0.00028
C          1.03577       -1.39798       -0.00014
C          1.28160       -2.82677       -0.00044
N          1.44783       -3.95784       -0.00070
C         -1.59873        1.36957       -0.00071
C         -1.42578        2.82666       -0.00087
N         -1.31510        3.96522       -0.00096
C         -2.95371        0.94614       -0.00095
N         -3.91720        1.94399       -0.00170
H         -3.64453        2.92165       -0.00117
H         -4.90324        1.70376       -0.00081
H         -1.09456       -2.78399       -0.00002
N         -3.40032       -2.76047       -0.00121
H         -4.41513       -2.77455        0.00169
H         -2.88997       -3.63717        0.00168
