27
Coordinates from ORCA-job ./opt_b97-3c_parallel
N         -4.65244       -1.53198        0.00731
C         -4.31387       -0.44653       -0.07404
C         -3.13830        0.37017       -0.01202
C         -3.46047        1.76458        0.05373
C         -2.43328        2.66395        0.18978
C         -1.37542        1.80125        0.07217
N         -0.02176        2.11301        0.05508
C          0.88748        1.06885       -0.00301
N          2.14881        1.66841        0.00046
C          3.26849        0.84973       -0.00175
N          3.87258       -0.39830        0.00016
C          2.96828       -1.44922        0.00566
N          3.52632       -2.41022        0.00634
H          4.50443       -2.71180        0.00778
H          3.00688       -3.29342        0.00659
C          1.60030       -1.42419        0.00022
C          0.54976       -0.34534       -0.00883
C         -0.86656       -0.68839       -0.03138
C         -1.35403       -2.03286       -0.03756
N         -1.67842       -3.12680       -0.03160
C         -1.77768        0.43256        0.00890
H          1.09229       -2.38518       -0.00208
N          4.13743        1.53896       -0.00067
H          5.13402        1.30849        0.00160
H          4.12298        2.56196        0.00015
H         -2.45579        3.66613       -0.23399
H         -4.49479        2.09987        0.03039
