22
Coordinates from ORCA-job ./opt_b97-3c_parallel
N         -4.06407       -2.21496        0.00443
C         -3.44981       -1.25190        0.00303
C         -2.71774       -0.02527        0.00129
C         -1.29479        0.04011        0.00083
N         -0.37769       -1.00119        0.00194
C          0.96279       -0.60275        0.00073
C          1.83926       -1.66057        0.00201
C          3.20149       -1.76309        0.00159
C          4.06591       -0.71288       -0.00064
C          3.58554        0.55619       -0.00215
N          2.50553        1.40657       -0.00287
C          1.23929        0.83522       -0.00158
N          0.30585        1.74099       -0.00260
C         -0.95051        1.42019       -0.00144
C         -2.12796        2.10801       -0.00208
C         -3.15873        1.26483       -0.00051
H         -4.20565        1.56155       -0.00073
H         -2.21452        3.19241       -0.00381
H          4.41865        1.27626       -0.00337
H          5.13957       -0.89158       -0.00074
H          3.63001       -2.76073        0.00357
H          1.36102       -2.64034        0.00366
