29
Coordinates from ORCA-job ./opt_b97-3c_parallel
N         -5.08306       -1.19449        0.02519
C         -4.06569       -0.67297       -0.00338
C         -2.78019        0.00314       -0.02974
C         -2.92162        1.37963       -0.14498
C         -1.94477        2.35139       -0.15724
C         -0.57460        2.20326       -0.06649
C          0.21560        1.04723        0.00807
C          1.60628        1.29555        0.06711
N          2.23304        2.51275        0.12101
H          3.21624        2.53323        0.36845
H          1.67731        3.33378        0.33037
C          2.64251        0.30858        0.12973
C          2.12281       -1.02773        0.00556
C          3.09149       -2.00945       -0.08042
C          4.30289       -1.37675       -0.02257
C          4.05657       -0.02213        0.10256
H          4.88450        0.67931        0.16729
H          5.27971       -1.85188       -0.06781
H          2.92687       -3.07971       -0.18117
C          0.76348       -1.30488       -0.01688
C         -0.23767       -0.30117        0.01704
C         -1.58911       -0.75456        0.04682
N         -1.79612       -2.11168        0.18843
H         -1.02851       -2.68396        0.51963
H         -2.73653       -2.43490        0.38945
H          0.52141       -2.36021       -0.09222
H         -0.06998        3.16409       -0.08472
H         -2.30315        3.37529       -0.23784
H         -3.93767        1.76636       -0.21724
