27
Coordinates from ORCA-job ./opt_b97-3c_parallel
N         -1.62555       -4.00363       -0.00040
C         -1.86494       -2.88615        0.00017
C         -2.19178       -1.46993        0.00074
C         -3.57152       -1.27310        0.00137
C         -4.29317       -0.09687        0.00133
C         -3.80305        1.19161        0.00078
C         -2.48526        1.62456       -0.00002
C         -1.26966        0.91002       -0.00094
C         -1.14036       -0.51687       -0.00043
N          0.10449       -1.07710       -0.00093
C          1.18055       -0.28877       -0.00191
C          1.16577        1.05714       -0.00226
N          2.42195        1.56509       -0.00317
C          3.10210        0.66344       -0.00329
N          4.46011        0.81372       -0.00475
H          5.06390       -0.00230       -0.00465
H          4.88372        1.73472       -0.00518
C          2.53648       -0.67227       -0.00264
C          3.10714       -1.98369       -0.00263
N          3.78463       -2.90443       -0.00271
C         -0.07432        1.69667       -0.00158
C         -0.06228        3.14612       -0.00172
N         -0.07930        4.28941       -0.00226
H         -2.45096        2.70876        0.00004
H         -4.55705        1.97589        0.00142
H         -5.37616       -0.19966        0.00231
H         -4.19202       -2.16900        0.00161
