27
Coordinates from ORCA-job ./opt_b97-3c_parallel
N         -4.79899       -1.01435        1.15898
C         -3.97871       -0.41468        0.63776
C         -2.97733        0.35879       -0.03291
C         -3.41704        1.63258       -0.25520
C         -2.38727        2.46122       -0.42428
C         -1.13853        1.66664       -0.31311
N          0.17199        1.98014       -0.39570
C          1.06585        0.97126       -0.26613
N          2.30867        1.38552       -0.32661
C          3.45746        0.86432       -0.02123
N          3.96065        1.65735        0.55549
H          4.83845        1.46047        1.03178
H          3.76029        2.64584        0.69320
C          3.74745       -0.47244        0.02562
C          2.77540       -1.43491       -0.03130
N          2.85757       -2.41009       -0.53922
H          3.82634       -2.58688       -0.79688
H          2.32263       -3.23128       -0.81337
N          1.67235       -1.34815        0.01593
C          0.72172       -0.38263       -0.06454
C         -0.64448       -0.68691        0.04351
C         -1.10824       -2.03408        0.27979
N         -1.48591       -3.09439        0.47913
C         -1.54934        0.36796       -0.08285
H          4.78795       -0.78081        0.11272
H         -2.54345        3.52043       -0.61385
H         -4.46093        1.93917       -0.29570
