30
Coordinates from ORCA-job ./opt_b97-3c_parallel
N         -3.17660       -3.88374       -0.18997
C         -2.94623       -2.76447       -0.16686
C         -2.67474       -1.33906       -0.13928
C         -3.84899       -0.62653       -0.36939
C         -4.07238        0.73080       -0.30995
C         -3.17429        1.70842        0.05323
C         -1.79516        1.62502        0.22770
C         -1.31287        2.84252        0.85376
N         -0.95469        3.80021        1.36540
C         -0.92447        0.51795        0.00632
C         -1.34509       -0.85018        0.00117
C         -0.33931       -1.83818        0.13124
C          1.00802       -1.53411        0.15859
C          1.42277       -0.24568       -0.03945
C          2.84922       -0.05429       -0.13177
C          3.94251        0.85469        0.03194
N          4.83766        1.35838       -0.46965
C          2.96609       -1.47793        0.09244
N          4.15269       -2.16016        0.10366
H          4.17007       -3.11816        0.43521
H          5.01574       -1.62672        0.13901
C          2.01402       -2.54677        0.26824
H          2.03474       -3.31314        1.03815
C          0.47489        0.77426       -0.16061
C          0.99193        2.03172       -0.67141
N          1.40507        3.00952       -1.09384
H         -0.56349       -2.89772        0.20959
H         -3.63300        2.68606        0.20583
H         -5.09874        1.05547       -0.46657
H         -4.74959       -1.20658       -0.57382
