27
Coordinates from ORCA-job ./opt_b97-3c_parallel
N          0.24201       -4.33932       -0.04046
C          0.47341       -3.22108        0.01075
C          0.76180       -1.80799        0.09407
C          2.16708       -1.63430        0.35022
N          2.91195       -0.82484        0.24840
C          2.64220        0.23743        0.12107
N          3.69953        0.56360       -0.68814
H          3.82852        1.52980       -0.96828
H          4.50775       -0.04771       -0.72492
C          1.47550        1.07169        0.29824
C          1.83965        2.44556        0.57459
N          2.11454        3.53361        0.79169
C          0.14454        0.61021        0.19341
C         -0.88953        1.57062        0.22459
C         -2.20316        1.16158        0.07071
C         -2.52277       -0.15790       -0.10527
C         -3.89711       -0.26908       -0.24067
C         -4.42043        1.01729       -0.14576
C         -3.36937        1.90907        0.04793
H         -3.44961        2.98786        0.15795
H         -5.47305        1.28125       -0.21262
H         -4.46103       -1.18619       -0.39300
C         -1.54642       -1.13927       -0.11904
C         -0.19435       -0.77200        0.04537
H         -1.85576       -2.17359       -0.24546
H         -0.69367        2.63334        0.34267
H          2.94838       -2.38528        0.40247
