27
Coordinates from ORCA-job ./opt_b97-3c_parallel
N         -5.38889       -1.14917       -0.65357
C         -4.27122       -1.00557       -0.46132
C         -2.85256       -0.83732       -0.20414
C         -2.17319       -2.04080       -0.11697
C         -0.83599       -2.27213        0.13391
C          0.24209       -1.39315        0.17115
N          1.41005       -2.07761        0.30078
C          2.54471       -1.37793        0.26080
C          2.64241       -0.07080       -0.04227
N          3.93515        0.29751       -0.21319
C          4.57146       -0.61991       -0.04251
C          3.87008       -1.84595        0.26361
H          4.28182       -2.82825        0.47059
H          5.63581       -0.44046       -0.13675
C          1.46874        0.66743       -0.18223
C          1.63717        1.98608       -0.76375
N          1.77429        3.01516       -1.24281
C          0.20353        0.02898        0.05142
C         -0.97462        0.81577        0.22275
C         -0.79497        2.14855        0.78792
N         -0.67252        3.18671        1.25171
C         -2.33442        0.44219        0.05926
N         -3.28220        1.44670        0.14031
H         -4.26260        1.19181        0.20098
H         -3.00520        2.35662        0.49473
H         -0.59211       -3.33113        0.22023
H         -2.76927       -2.94587       -0.23053
