31
Coordinates from ORCA-job ./opt_b97-3c_parallel
N          3.04713        3.94375        0.46138
C          2.87846        2.82737        0.28807
C          2.61369        1.43074        0.10558
C          3.39463        0.28520        0.00910
N          4.49095        0.42688        0.05996
H          5.08805       -0.38638       -0.09603
H          5.11555        1.21727        0.21651
C          2.55536       -0.89595       -0.12602
C          3.24121       -2.15268       -0.21316
N          3.52260       -3.14712       -0.69871
C          1.25858       -0.43334       -0.10236
C          1.27319        0.95310        0.01127
C          0.05832        1.68634        0.02577
C         -1.19776        0.98007       -0.03903
N         -2.28197        1.83546       -0.16675
C         -3.54296        1.32750       -0.14098
N         -4.37873        0.26413        0.02279
C         -3.76604       -0.95648        0.22385
N         -4.60874       -1.65671        0.39551
H         -5.59603       -1.66014        0.66127
H         -4.29333       -2.61174        0.58146
C         -2.34932       -1.26217        0.12305
C         -1.21201       -0.43572       -0.01849
C          0.00778       -1.15878       -0.12271
C          0.10385       -2.58525       -0.26651
N          0.11821       -3.72020       -0.39243
H         -2.22776       -2.33346        0.23299
N         -4.15524        2.22811       -0.33166
H         -5.15370        2.32168       -0.52333
H         -3.75367        3.13289       -0.58423
H          0.11619        2.72582        0.34585
