24
Coordinates from ORCA-job ./opt_b97-3c_parallel
N         -4.32489       -2.54363        0.12037
C         -3.69608       -1.60034        0.26525
C         -2.95865       -0.41448       -0.03159
C         -1.60873        0.06534        0.00015
C         -1.39677        1.42581        0.09112
C         -2.53746        2.28709        0.16303
C         -3.18773        1.00952        0.00694
H         -4.26574        1.14209       -0.06401
H         -2.71918        3.15386       -0.46372
N         -0.15496        1.94761        0.11713
C          0.89569        1.09119        0.05539
N          2.13571        1.59271        0.07414
C          3.21014        1.39378        0.05065
C          3.79871        0.09159       -0.01641
C          3.09947       -1.11481       -0.07405
N          3.85344       -2.25332       -0.13551
H          3.39976       -3.15142       -0.00379
H          4.85209       -2.19192        0.02834
C          1.70420       -1.27258       -0.07977
C          0.68188       -0.30776       -0.02679
N         -0.58163       -0.80543       -0.05714
H          1.35902       -2.30499       -0.13325
H          4.88667        0.11005       -0.02230
H          3.69650        2.35182        0.18805
