27
Coordinates from ORCA-job ./opt_b97-3c_parallel
N         -5.95764       -0.80037       -0.33443
C         -4.81867       -0.76456       -0.24774
C         -3.38218       -0.71397       -0.12391
C         -2.72229       -1.92744       -0.12784
C         -1.36917       -2.16445        0.02995
C         -0.28032       -1.29111        0.09137
N          0.87698       -1.99891        0.18393
C          2.02308       -1.31889        0.18704
C          2.14570        0.00557       -0.02072
N          3.44726        0.36537       -0.14300
C          4.06081       -0.57366       -0.02621
N          5.42314       -0.55627       -0.08037
H          5.91238        0.33105       -0.12362
H          5.95358       -1.38684        0.15713
C          3.34096       -1.80875        0.18456
H          3.73285       -2.81039        0.32822
C          0.98686        0.77265       -0.12539
C          1.20653        2.13152       -0.58101
N          1.39327        3.19293       -0.96300
C         -0.29353        0.14075        0.03907
C         -1.47687        0.92547        0.17902
C         -1.41568        2.30851        0.60875
N         -1.39632        3.39325        0.96965
C         -2.81718        0.53418        0.08670
H         -3.55254        1.33558        0.18548
H         -1.12724       -3.22724        0.05529
H         -3.33972       -2.81869       -0.23107
