27
Coordinates from ORCA-job ./opt_b97-3c_parallel
N          5.86142        0.48777        0.16266
C          4.71971        0.52337        0.11385
C          3.27947        0.58546        0.05252
C          2.67292        1.84230        0.02765
C          1.30344        2.13573       -0.00940
C          0.18746        1.28002       -0.01811
N         -1.01138        1.92055       -0.04425
C         -2.10790        1.14779       -0.04598
C         -3.45886        1.53417       -0.06835
C         -4.08698        0.23207       -0.05451
N         -5.44601        0.12045       -0.07573
H         -6.03141        0.94750       -0.03788
H         -5.88469       -0.79095       -0.00380
N         -3.41444       -0.67490       -0.03026
C         -2.14360       -0.20626       -0.02349
C         -0.93194       -0.89274        0.00237
C         -0.92538       -2.33878        0.02490
N         -0.90636       -3.48175        0.04485
C          0.26220       -0.13834        0.00418
N          1.44358       -0.77783        0.02387
C          2.52713       -0.63787        0.02813
N          3.05587       -1.88347       -0.16079
H          4.06051       -2.01483       -0.11162
H          2.46242       -2.70154       -0.07724
H         -3.92252        2.51486       -0.09463
H          1.07871        3.20083       -0.02589
H          3.33720        2.70406        0.04186
