22
Coordinates from ORCA-job ./opt_b97-3c_parallel
N          4.10066        2.22357        0.11604
C          3.46034        1.27823        0.06773
C          2.64989        0.08918        0.02577
C          1.28282        0.02664        0.01669
C          0.92413       -1.29579       -0.00053
C          2.04638       -2.20984       -0.01790
C          3.11372       -1.21843        0.00764
H          4.18193       -1.42180        0.01536
H          2.07300       -3.16663       -0.52984
N         -0.36076       -1.70236        0.00757
C         -1.33443       -0.75179        0.02208
N         -2.63248       -1.12569        0.04654
C         -3.68389       -0.78363        0.07008
C         -3.96793        0.62793        0.02610
C         -3.06715        1.75233       -0.01473
N         -1.97398        1.58855        0.00198
C         -1.01654        0.63346        0.01736
C          0.32492        1.02791        0.02371
H          0.60577        2.07927        0.02911
H         -3.13653        2.64929       -0.61828
H         -5.02458        0.81477       -0.14772
H         -4.16793       -1.55127        0.66217
