30
Coordinates from ORCA-job ./opt_b97-3c_parallel
N         -5.41320       -1.87983        0.10851
C         -4.50882       -1.18285        0.04531
C         -3.36867       -0.30204       -0.01429
C         -3.65305        1.05292       -0.09890
C         -2.76109        2.10946       -0.14222
C         -1.37478        2.09502       -0.08050
C         -0.47142        1.01982       -0.00367
C         -0.83021       -0.35694       -0.00331
C         -2.11705       -0.91114        0.00529
H         -2.15826       -1.99906        0.04014
C          0.18292       -1.33349        0.00371
C          1.51245       -0.94919        0.00750
C          1.86224        0.34503        0.03677
C          3.28728        0.42174        0.04192
N          4.29655        1.33624       -0.04144
H          5.23824        1.01486       -0.23412
H          4.06850        2.29161       -0.29266
N          3.08143       -0.69274        0.04859
C          2.68695       -1.75459        0.01079
N          2.97961       -3.08600       -0.02794
H          3.93599       -3.39658        0.10061
H          2.23596       -3.77072        0.04715
C          0.90757        1.35961        0.05705
N          1.36253        2.64903        0.16745
H          0.70237        3.35591        0.46999
H          2.32835        2.77465        0.45044
H         -0.05161       -2.39612       -0.00108
H         -0.96691        3.09979       -0.12313
H         -3.21332        3.09556       -0.22065
H         -4.70484        1.33259       -0.13523
