28
Coordinates from ORCA-job ./opt_b97-3c_parallel
N         -5.86053       -0.47510       -0.09764
C         -4.72563       -0.34590       -0.04545
C         -3.29582       -0.18172       -0.02395
C         -2.82988        1.16859        0.06016
N         -1.60140        1.69346       -0.01784
C         -0.41628        1.05719       -0.06594
N          0.59261        1.96062       -0.15739
C          1.88289        1.58673       -0.14669
N          2.94912        2.38885       -0.25369
C          3.48947        1.41521       -0.15540
C          3.68884        0.06431        0.02981
C          4.65366       -0.46559        0.09103
N          5.28328       -1.22502        0.66834
C          2.22488        0.27841        0.00491
C          1.23684       -0.70064        0.10809
C          1.69131       -2.06014        0.30597
N          2.05575       -3.12963        0.47663
C         -0.13505       -0.32967        0.02092
C         -1.07630       -1.44078       -0.04720
C         -2.51667       -1.32285       -0.10074
N         -2.88097       -2.37023       -0.19460
H         -2.46616       -3.25477       -0.48232
H         -3.86289       -2.41169       -0.46418
H         -0.67452       -2.45147       -0.12365
H          4.31009        2.07555       -0.48207
N         -3.10186        2.23711        0.12465
H         -2.88595        3.13565        0.55244
H         -3.98127        1.92201        0.52900
