28
Coordinates from ORCA-job ./opt_b97-3c_parallel
N         -5.82225       -0.58855       -0.11488
C         -4.68036       -0.59321       -0.07703
C         -3.23763       -0.61668       -0.02689
C         -2.59638       -1.85432        0.04744
C         -1.21829       -2.10715        0.08975
C         -0.12701       -1.21999        0.05492
N          1.09038       -1.81686        0.10596
C          2.20128       -1.05682        0.06251
C          2.16941        0.31685       -0.03585
C          3.44013        0.98204       -0.08904
C          4.01491       -0.33968       -0.00818
N          5.37939       -0.35363       -0.07861
H          5.88600        0.52293       -0.01755
H          5.87434       -1.21104        0.14338
C          3.48897       -1.67854        0.11571
H          3.80569       -2.53199       -0.47577
H          3.74194        1.83103        0.51618
C          0.93336        0.96272       -0.07950
C          0.88165        2.40645       -0.16654
N          0.85151        3.54778       -0.22453
C         -0.24053        0.18687       -0.03329
N         -1.43684        0.79634       -0.07357
C         -2.51509        0.62368       -0.06186
N         -3.06580        1.86685        0.07131
H         -2.48488        2.68947       -0.04741
H         -4.07222        1.97954        0.01417
H         -0.96257       -3.16344        0.15132
H         -3.23661       -2.73396        0.07409
