28
Coordinates from ORCA-job ./opt_b97-3c_parallel
N          5.24503        1.41725       -0.25385
C          4.29369        0.79255       -0.14728
C          3.09050        0.00338       -0.03339
C          3.28303       -1.36852        0.05501
C          2.32341       -2.36037        0.13930
C          0.94329       -2.23415        0.12726
C          0.13790       -1.09204        0.06755
C         -1.23381       -1.39990        0.04484
C         -2.16733       -0.37991       -0.00046
C         -1.79277        0.90700        0.01059
C         -2.97002        1.71278       -0.01581
N         -3.36987        0.65194       -0.02565
C         -3.58805       -0.45860       -0.05905
N         -4.54601       -1.41924       -0.18356
H         -4.26807       -2.37200       -0.38987
H         -5.49430       -1.14468       -0.41311
H         -3.08423        2.75859        0.24118
C         -0.45013        1.27841        0.03510
N         -0.17768        2.62263        0.06794
H          0.75659        2.91861        0.32643
H         -0.94075        3.25960        0.26628
C          0.55361        0.26885        0.03391
C          1.88930        0.71217       -0.02211
H          2.04581        1.78483       -0.08820
H         -1.58649       -2.42878        0.05351
H          0.42702       -3.19109        0.17606
H          2.70306       -3.37760        0.20362
H          4.31352       -1.72091        0.05316
