26
Coordinates from ORCA-job ./opt_b97-3c_parallel
N          6.02972       -0.02264       -0.00155
C          4.89223        0.08927       -0.00072
C          3.46166        0.25583        0.00052
C          2.69447       -0.95445        0.00155
N          1.60110       -1.01958        0.00123
C          0.44101       -0.34038        0.00215
C          0.41523        1.07633        0.00417
N         -0.75867        1.75906        0.00698
C         -1.90590        1.05943        0.00634
C         -1.96331       -0.30593        0.00189
C         -3.30892       -0.79411       -0.00007
C         -4.00626        0.47749        0.00235
N         -5.36546        0.60277       -0.00639
H         -5.95417       -0.22297        0.00344
H         -5.79349        1.52234        0.00661
C         -3.19177        1.67641        0.01377
H         -3.47010        2.72536       -0.00627
H         -3.69551       -1.80808        0.00536
C         -0.78169       -1.04344        0.00093
C         -0.83707       -2.48843       -0.00079
N         -0.89665       -3.62954       -0.00180
C          1.56074        1.89017        0.00302
C          2.91577        1.53940        0.00106
H          3.61932        2.36932        0.00023
H          1.37734        2.96300        0.00345
H          3.04518       -1.98001       -0.00086
