26
Coordinates from ORCA-job ./opt_b97-3c_parallel
N          5.15973        1.31219       -0.00733
C          4.04198        1.07675       -0.01486
C          2.61847        0.79379       -0.01785
C          1.84673        1.94507       -0.05131
C          0.47385        2.08272       -0.08783
C         -0.53499        1.12720       -0.05699
N         -1.76756        1.70250       -0.11634
C         -2.85466        0.91671       -0.06364
C         -2.73589       -0.44361        0.06795
N         -1.53050       -1.03451        0.10902
C         -0.38508       -0.28464        0.03484
C          0.83612       -1.01462        0.04533
C          0.69968       -2.47150        0.09637
N          0.61138       -3.61115        0.13171
C          2.17334       -0.54109        0.00372
N          3.18016       -1.49011       -0.01184
H          4.14994       -1.20011        0.06449
H          2.95101       -2.47242        0.09736
C         -3.93165       -1.22390        0.15726
C         -4.51483        0.08737        0.00631
C         -4.16729        1.47968       -0.14593
H         -4.55403        2.28515        0.47002
H         -5.59139       -0.07028        0.00705
H         -4.14830       -2.09298       -0.45533
H          0.14400        3.12035       -0.13849
H          2.38630        2.89140       -0.06761
