25
Coordinates from ORCA-job ./opt_b97-3c_parallel
N          4.73284        1.62664        0.19132
C          4.02703        0.73052        0.12275
C          3.12868       -0.39406        0.05427
C          1.76135       -0.35013        0.01757
C          1.30085       -1.63817       -0.02248
N         -0.01041       -1.94031       -0.05225
C         -0.91123       -0.91999       -0.04956
N         -2.22883       -1.22366       -0.06651
C         -3.18988       -0.66984       -0.06016
N         -3.43746        0.41224       -0.08541
C         -2.85213        1.35658       -0.07426
C         -1.41436        1.51185       -0.03415
C         -1.05185        2.90865       -0.03656
N         -0.75529        4.01236       -0.04991
C         -0.48996        0.44334       -0.02148
C          0.88688        0.72451        0.01885
H          1.27628        1.73888        0.05241
H         -3.61609        2.10949       -0.23021
N         -4.19759       -1.56283        0.14507
H         -5.15545       -1.24563        0.23854
H         -3.99652       -2.55349        0.22199
C          2.35028       -2.63448       -0.00295
C          3.49346       -1.73254        0.02995
H          4.54346       -2.01559        0.04432
H          2.31949       -3.62840       -0.43764
