26
Coordinates from ORCA-job ./opt_b97-3c_parallel
N         -3.37813       -3.21842       -0.10638
C         -2.89654       -2.18171       -0.09344
C         -2.30180       -0.85768       -0.08895
C         -3.27829        0.10341       -0.33664
C         -3.17649        1.47540       -0.31227
C         -2.06613        2.22781       -0.00229
C         -0.73888        1.83394        0.15573
C          0.02678        2.94371        0.69216
N          0.60457        3.82616        1.13303
C         -0.15517        0.54238       -0.00260
C          1.27007        0.45347       -0.16938
C          2.10570        1.51497       -0.70121
N          2.76559        2.33819       -1.14173
C          1.92827       -0.76286       -0.00551
C          1.21260       -1.86660        0.26089
C         -0.16134       -1.88832        0.23961
C         -0.89569       -0.69015        0.05209
H         -0.61551       -2.86731        0.35598
C          2.15999       -2.90517        0.32444
C          3.37362       -2.16634        0.06474
N          3.24612       -1.05895       -0.11143
H          4.39697       -2.51853        0.01182
H          2.04537       -3.96536        0.52461
H         -2.28245        3.29060        0.11117
H         -4.10117        2.02692       -0.46823
H         -4.29104       -0.25508       -0.52379
