23
Coordinates from ORCA-job ./opt_b97-3c_parallel
N         -2.09260       -3.35538       -0.00034
C         -2.14868       -2.21381       -0.00043
C         -1.83451       -0.81117       -0.00020
C         -3.07763       -0.19882       -0.00013
C         -3.36336        1.20304       -0.00009
C         -2.46996        2.24092       -0.00010
C         -1.10089        2.23567        0.00013
C         -0.17720        1.21398        0.00001
N          1.12198        1.62288        0.00005
C          2.14566        0.69484        0.00008
C          1.85014       -0.68402        0.00010
C          3.12602       -1.33040        0.00002
C          4.11806       -0.29531        0.00001
N          3.50011        0.94313        0.00003
H          5.21882       -0.28186       -0.00003
H          3.35801       -2.39057       -0.00005
C          0.56954       -1.18374        0.00001
C         -0.51338       -0.21465       -0.00002
H          0.46343       -2.26655        0.00023
H         -0.67569        3.23740        0.00002
H         -2.92215        3.22897       -0.00010
H         -4.42252        1.44507       -0.00008
H         -3.99547       -0.78903       -0.00005
