27
Coordinates from ORCA-job ./opt_b97-3c_parallel
N         -6.11631       -0.23388        0.00700
C         -4.97371       -0.25068        0.00786
C         -3.53085       -0.25793        0.00412
C         -2.91631       -1.50016        0.00109
C         -1.56180       -1.80025       -0.00248
C         -0.43355       -0.97523       -0.00411
N          0.71594       -1.70139       -0.00656
C          1.89374       -1.06296       -0.00907
C          2.00902        0.29309       -0.00964
C          3.37665        0.71955       -0.01406
C          4.02166       -0.57848       -0.01469
N          5.38132       -0.69903       -0.02431
H          5.96769        0.12850       -0.01642
H          5.81199       -1.61733       -0.01642
C          3.15139       -1.73741       -0.00873
H          3.38338       -2.79748       -0.02005
H          3.80665        1.71626       -0.00817
C          0.86275        1.08360       -0.00624
C          1.05269        2.51902       -0.00647
N          1.19362        3.65342       -0.00269
C         -0.41082        0.44801       -0.00324
C         -1.54633        1.28150        0.00039
C         -2.90231        0.97848        0.00380
H         -3.55970        1.84702        0.00658
H         -1.39164        2.35524        0.00095
H         -1.36116       -2.87119       -0.00419
H         -3.57670       -2.36599        0.00179
