26
Coordinates from ORCA-job ./opt_b97-3c_parallel
N         -1.64387       -3.80467        0.03765
C         -1.60058       -2.66264        0.01806
C         -1.56639       -1.21846       -0.00506
C         -2.89995       -0.67879        0.02993
N         -3.42542        0.29250        0.04112
C         -2.88220        1.25098        0.00528
N         -3.97628        2.06938       -0.01535
H         -4.90476        1.68121        0.11027
H         -3.86206        3.07434        0.05369
C         -1.53360        1.75233       -0.03783
C         -0.37642        0.96479       -0.06615
N          0.79185        1.65606       -0.10797
C          1.93661        0.94692       -0.13534
C          1.93928       -0.42909       -0.12157
N          0.79748       -1.14223       -0.07933
C         -0.38149       -0.46079       -0.05118
C          3.21110       -1.08314       -0.14210
C          3.73601        0.26288       -0.08023
N          5.09146        0.28332        0.10078
H          5.61330       -0.58167        0.00977
H          5.58987        1.15940       -0.01244
C          3.20614        1.60548       -0.16901
H          3.50334        2.43768        0.46124
H          3.51211       -1.90160        0.50448
H         -1.45728        2.83792       -0.04848
H         -3.84631       -1.20396       -0.04138
