27
Coordinates from ORCA-job ./opt_b97-3c_parallel
N         -1.58191       -3.83391       -0.04576
C         -1.57082       -2.68877       -0.03666
C         -1.57787       -1.24386       -0.02114
C         -2.92525       -0.73722       -0.02353
N         -3.46718        0.22507       -0.01388
C         -2.97687        1.21297       -0.01678
N         -4.07704        2.02197       -0.06337
H         -3.96874        3.02339       -0.17630
H         -5.00060        1.62133       -0.18579
C         -1.63781        1.73792        0.03164
C         -0.46489        0.96885        0.05002
C          0.73295        1.69215        0.11066
C          1.93790        1.00252        0.15023
C          1.92410       -0.36954        0.11146
N          0.78801       -1.09391        0.04765
C         -0.41359       -0.45101        0.02086
C          3.20527       -1.00157        0.17811
C          3.82692        0.30578        0.12119
N          5.18822        0.27524       -0.01456
H          5.72035        1.12550        0.13506
H          5.67236       -0.61207        0.08286
C          3.22620        1.61576        0.26157
H          3.53673        2.53515       -0.22393
H          3.51934       -1.88269       -0.37271
H          0.72982        2.77901        0.14061
H         -1.59232        2.82461        0.06442
H         -3.85644       -1.28713        0.05699
