24
Coordinates from ORCA-job ./opt_b97-3c_parallel
N          1.61864        3.81329       -0.01483
C          1.57655        2.67133       -0.00990
C          1.54319        1.22764       -0.00380
C          2.87648        0.68366       -0.00527
N          3.38616       -0.29568       -0.00755
C          2.85357       -1.26028        0.00959
N          3.93104       -2.09916        0.04466
H          3.79791       -3.10183       -0.02765
H          4.87009       -1.72978       -0.05464
C          1.49980       -1.74768        0.01020
C          0.34764       -0.95342        0.00672
N         -0.82456       -1.63794        0.00926
C         -1.96976       -0.92460        0.00660
N         -3.23577       -1.35681        0.00802
C         -3.43890       -0.24646        0.00360
N         -4.80860       -0.28211       -0.00860
H         -5.34535        0.57784        0.00331
H         -5.30100       -1.16834        0.00895
N         -3.23711        0.86427       -0.00012
C         -1.96985        0.43515        0.00153
N         -0.82372        1.14895       -0.00139
C          0.35690        0.47059        0.00063
H          1.41644       -2.83302        0.01506
H          3.82322        1.21233       -0.00721
