29
Coordinates from ORCA-job ./opt_b97-3c_parallel
N         -5.67740       -1.28164        0.62485
C         -4.56156       -1.10959        0.44761
C         -3.14546       -0.90135        0.20509
C         -2.42968       -2.08493        0.13391
C         -1.08520       -2.27936       -0.11261
C         -0.03344       -1.36941       -0.15773
N          1.15522       -2.01598       -0.29459
C          2.26729       -1.27956       -0.26028
C          2.32475        0.02981        0.05088
N          3.60402        0.44466        0.21721
C          4.26254       -0.45138        0.02803
N          5.62253       -0.36266        0.07248
H          6.06398        0.54282        0.19009
H          6.19607       -1.14378       -0.22495
C          3.60790       -1.70320       -0.27759
H          4.05254       -2.66260       -0.52097
C          1.12810        0.72714        0.20023
C          1.25045        2.04462        0.79534
N          1.34950        3.07251        1.28600
C         -0.11575        0.05087       -0.03804
C         -1.31384        0.80312       -0.21651
C         -1.16729        2.13710       -0.78797
N         -1.06945        3.17511       -1.25801
C         -2.66366        0.39122       -0.06126
N         -3.63834        1.36897       -0.15162
H         -4.61166        1.08851       -0.21589
H         -3.38375        2.28870       -0.49828
H         -0.81027       -3.33128       -0.19076
H         -2.99928       -3.00621        0.25333
