29
Coordinates from ORCA-job ./opt_b97-3c_parallel
N          1.07652        4.53294       -0.23983
C          1.18595        3.39874       -0.15404
C          1.31224        1.96412       -0.03530
C          2.69546        1.68079        0.22979
N          3.38045        0.82329        0.12776
C          2.98559       -0.19065       -0.04355
N          4.24023       -0.64593       -0.37612
H          4.39624       -1.64186       -0.49096
H          5.05202       -0.05237       -0.24224
C          1.75723       -0.96521        0.02221
C          2.07427       -2.36584       -0.18347
N          2.34350       -3.46185       -0.36782
C          0.45127       -0.39503        0.07411
C         -0.71695       -1.20596        0.20070
C         -0.75118       -2.61405        0.52797
N         -0.80835       -3.72177        0.80359
C         -1.96144       -0.59927        0.09509
C         -2.14583        0.72421       -0.09832
N         -3.45097        1.06331       -0.17074
C         -4.03025        0.10381       -0.04769
N         -5.39236        0.07733       -0.08960
H         -5.89926        0.90910       -0.37130
H         -5.88058       -0.81083       -0.11382
C         -3.27530       -1.11033        0.15651
H         -3.64468       -2.12194        0.29305
C         -1.04273        1.55457       -0.15382
C          0.25921        1.02455       -0.03789
H         -1.22508        2.61978       -0.27059
H          3.39628        2.23956        0.84150
