26
Coordinates from ORCA-job ./opt_b97-3c_parallel
N          5.70386        0.50973       -0.10329
C          4.56486        0.44667       -0.04899
C          3.13470        0.37288       -0.02042
C          2.48957        1.60149       -0.01153
C          1.05409        1.81699        0.01219
C          0.07552        0.83296        0.01957
N         -1.23222        1.31188        0.02795
C         -2.26127        0.39135        0.02307
N         -3.55510        0.87440        0.02259
C         -4.48629       -0.14551       -0.00273
N         -5.57956        0.01965       -0.00544
H         -6.11360        0.88634        0.07975
H         -6.27969       -0.71974       -0.08749
C         -3.49703       -1.08223       -0.01943
C         -2.01708       -1.01533        0.00362
C         -0.68844       -1.55099        0.00865
C          0.38778       -0.58217        0.01608
N          1.35088       -1.12111        0.01725
C          2.42588       -0.87750        0.00002
N          2.77822       -1.92772        0.00444
H          3.77529       -1.71745        0.01428
H          2.69948       -2.93611        0.12406
H         -0.48132       -2.62048        0.00472
H         -3.72907       -2.14571       -0.05551
H          0.74240        2.85827        0.01666
H          3.09632        2.50384       -0.02333
