24
Coordinates from ORCA-job ./opt_b97-3c_parallel
N          1.43202        3.73060        0.00025
C          1.64934        2.60844        0.00048
C          1.94188        1.19111        0.00037
C          3.32475        0.93035       -0.00005
C          3.98095       -0.30001       -0.00038
C          3.36257       -1.58896       -0.00066
N          2.27810       -1.71449       -0.00006
C          1.06407       -1.15393        0.00044
C         -0.03096       -2.03150        0.00057
C         -1.32390       -1.52905        0.00109
N         -2.48777       -2.21132        0.00130
C         -3.26561       -1.39333        0.00177
C         -2.89925        0.00673        0.00205
C         -3.77023        1.13785        0.00264
N         -4.17819        2.20549       -0.00174
C         -1.50382       -0.18666        0.00157
C         -0.45897        0.72401        0.00125
C          0.87341        0.25154        0.00059
H         -0.71216        1.78034        0.00155
H         -4.25043       -1.84511        0.00192
H          0.12785       -3.10791        0.00040
H          3.83266       -2.56497       -0.00042
H          5.06759       -0.33808       -0.00059
H          3.98777        1.79440       -0.00023
