26
Coordinates from ORCA-job ./opt_b97-3c_parallel
N          5.73685        0.34456        0.31410
C          4.59787        0.35134        0.22328
C          3.15950        0.37751        0.10760
C          2.52160        1.61632        0.04237
C          1.14633        1.86895       -0.03327
C          0.06007        0.97724       -0.03402
N         -1.16354        1.57073       -0.08822
C         -2.23002        0.75417       -0.07130
C         -3.59668        1.07641       -0.10718
C         -4.15929       -0.25504       -0.04713
N         -5.51129       -0.43493       -0.06093
H         -6.13670        0.36304       -0.05401
H         -5.90372       -1.36332        0.04891
N         -3.45102       -1.13457        0.00836
C         -2.20973       -0.59877       -0.00128
C         -0.97385       -1.22831        0.04920
C          0.18418       -0.43572        0.03114
N          1.36810       -1.06542        0.07196
C          2.44378       -0.86771        0.06919
N          3.00061       -2.07692       -0.23975
H          4.01033       -2.17514       -0.24118
H          2.44116       -2.91950       -0.17271
H         -0.91014       -2.31272        0.10141
H         -4.10686        2.03219       -0.16652
H          0.88822        2.92549       -0.08097
H          3.16167        2.49631        0.05776
