31
Coordinates from ORCA-job ./opt_b97-3c_parallel
N         -5.16385       -1.40828        0.07478
C         -4.12184       -0.94003        0.02500
C         -2.80143       -0.35901       -0.05101
C         -2.85314        0.99095       -0.54881
N         -2.21732        1.88021       -0.37951
C         -1.17941        1.84165       -0.00507
N         -1.27367        2.82249        0.94585
H         -0.44501        3.08747        1.46694
H         -2.04060        3.48450        0.90654
C         -0.08349        0.89793       -0.05996
C          1.22542        1.39263       -0.24068
N          1.48261        2.72377       -0.43906
H          2.40095        2.99843       -0.76861
H          0.70084        3.34116       -0.63202
C          2.28187        0.48683       -0.21638
C          2.07572       -0.82808       -0.02074
C          3.32772       -1.50445       -0.06004
N          3.76861       -2.79116        0.02663
H          4.73117       -3.00575       -0.20802
H          3.09755       -3.55090        0.02516
N          3.59273       -0.41490       -0.21796
C          3.68221        0.70473       -0.37262
H          4.23546        1.63386       -0.31110
C          0.80164       -1.35523        0.14518
C         -0.31679       -0.49681        0.10506
C         -1.61278       -1.06445        0.21421
N         -1.74070       -2.39001        0.55427
H         -0.94259       -2.86622        0.95856
H         -2.66508       -2.74315        0.77901
H          0.70661       -2.43029        0.26744
H         -3.69096        1.52222       -0.98604
