23
Coordinates from ORCA-job ./opt_b97-3c_parallel
N         -1.92282       -3.41393        0.00039
C         -1.83139       -2.27399        0.00057
C         -1.74071       -0.82465        0.00084
C         -3.00108       -0.22463        0.00128
C         -3.34597        1.11564        0.00161
C         -2.50324        2.20988        0.00165
C         -1.11795        2.22823        0.00147
C         -0.19055        1.18374        0.00109
N          1.09174        1.64867        0.00112
C          2.08378        0.74642        0.00051
C          1.84130       -0.59111       -0.00034
N          0.59694       -1.08992       -0.00025
C         -0.46106       -0.21967        0.00060
C          3.02763       -1.38240       -0.00288
C          3.98247       -0.29017        0.00005
C          3.47332        1.06855        0.00028
H          3.98622        2.02462        0.00022
H          5.04653       -0.51238       -0.00036
H          3.16903       -2.45823        0.00197
H         -0.69843        3.23363        0.00157
H         -2.99013        3.18251        0.00190
H         -4.41157        1.33411        0.00186
H         -3.85800       -0.89756        0.00133
