24
Coordinates from ORCA-job ./opt_b97-3c_parallel
N          5.04684        1.72253        0.01459
C          4.08700        1.16213        0.28035
C          3.12734        0.13256        0.03836
C          1.71741       -0.12412        0.03645
C          1.28390       -1.43491        0.09637
N         -0.02647       -1.75141        0.09289
C         -0.92211       -0.73291        0.03272
C         -2.27117       -1.10698        0.02815
C         -3.38332       -0.19443       -0.02427
N         -3.57359        0.89140       -0.04856
C         -2.77411        1.65228       -0.07495
C         -1.33815        1.71825       -0.07516
C         -0.47696        0.61694       -0.02150
N          0.84880        0.90594       -0.02198
H         -0.94509        2.73180       -0.11547
H         -3.48486        2.46982       -0.03847
N         -4.68382       -0.61336       -0.03289
H         -4.90143       -1.59309        0.10909
H         -5.43284        0.06307        0.06548
H         -2.54668       -2.15877        0.06670
C          2.26459       -2.47479        0.16535
C          3.10591       -1.30913        0.05941
H          4.11781       -1.70483       -0.00231
H          2.32022       -3.33731       -0.49095
