26
Coordinates from ORCA-job ./opt_b97-3c_parallel
N          2.12003        3.92141        0.00224
C          1.91035        2.79754        0.00158
C          1.62748        1.38027        0.00052
C          2.86876        0.65197       -0.00043
N          3.23773       -0.38819        0.00085
C          2.56494       -1.26024        0.00043
N          3.50718       -2.25004        0.00148
H          3.22820       -3.22484        0.00487
H          4.49564       -2.02507        0.00606
C          1.15568       -1.54711       -0.00082
C          0.10869       -0.60553       -0.00095
C         -1.22143       -1.09939       -0.00147
C         -1.53109       -2.51361       -0.00261
N         -1.75771       -3.63417       -0.00349
C         -2.28673       -0.19986       -0.00034
C         -2.03783        1.13033        0.00096
C         -3.31194        1.72716        0.00182
C         -4.14824        0.54877        0.00089
N         -3.61755       -0.44723       -0.00026
H         -5.22876        0.46801        0.00114
H         -3.61430        2.76933        0.00298
C         -0.76693        1.67350        0.00115
C          0.33962        0.80431        0.00013
H         -0.66174        2.75547        0.00216
H          0.99800       -2.62219       -0.00226
H          3.88341        1.03625       -0.00104
