24
Coordinates from ORCA-job ./opt_b97-3c_parallel
N         -1.17200       -3.87450       -0.02342
C         -1.19084       -2.73110       -0.01717
C         -1.22228       -1.28539        0.00596
C         -2.57522       -0.79503        0.04937
N         -3.11636        0.16819        0.03655
C         -2.64964        1.16698        0.03737
N         -3.74444        1.97908       -0.04903
H         -4.66768        1.58286       -0.18515
H         -3.62596        2.97813       -0.17632
C         -1.31491        1.70023        0.07907
C         -0.13590        0.94631        0.05080
C          1.05291        1.69442        0.06661
C          2.26185        1.01865        0.02669
C          2.23430       -0.33398       -0.02246
N          1.13980       -1.11267       -0.03193
C         -0.06846       -0.47902        0.00604
C          3.59007       -0.70029       -0.05658
C          4.19700        0.61216       -0.01786
N          3.51763        1.51499        0.02643
H          5.24458        0.88848       -0.02807
H          4.07096       -1.67126       -0.10786
H          1.03675        2.78071        0.10420
H         -1.27900        2.78692        0.12049
H         -3.49879       -1.36245        0.08551
