28
Coordinates from ORCA-job ./opt_b97-3c_parallel
N          2.65856        3.58176       -0.04219
C          2.66419        2.43696       -0.04284
C          2.19333        1.43103       -0.04454
C          3.41491        0.81022       -0.09950
N          4.00206       -0.44467       -0.04359
C          3.07022       -1.46031        0.06491
N          1.77620       -1.44559        0.06232
C          0.76735       -0.62801        0.00807
C         -0.54253       -1.10654       -0.03535
C         -0.94750       -2.48224       -0.05068
N         -0.56261       -3.45443       -0.51220
C         -1.51219       -0.03329       -0.05145
C         -1.10388        1.33188       -0.02291
N          0.00898        1.42718       -0.02272
C          0.95515        0.82497       -0.01593
C         -2.14013        2.22375        0.00095
C         -3.18804        1.32316       -0.04421
N         -4.14355        1.88002       -0.04950
H         -4.89720        1.20010       -0.14354
H         -4.57649        2.74757        0.26455
C         -2.87037       -0.08309       -0.08252
C         -3.87976       -1.09536       -0.14305
N         -4.66017       -1.92629       -0.21247
H         -2.12866        3.05763        0.70372
N          3.42958       -2.49603        0.17561
H          2.92997       -3.35252        0.41570
H          4.42008       -2.69977        0.30703
H          4.51420        0.76356       -0.17618
