28
Coordinates from ORCA-job ./opt_b97-3c_parallel
N          5.16025        1.57423        0.03015
C          4.14799        1.04359        0.03847
C          2.86677        0.38723        0.05832
C          2.89724       -1.02297        0.34280
N          2.17991       -1.86186        0.27366
C          1.10988       -1.78435        0.01359
N          1.01856       -2.95076       -0.69598
H          1.76319       -3.63706       -0.64728
H          0.13709       -3.22202       -1.11646
C          0.07944       -0.77316        0.00348
C         -1.25110       -1.19254        0.06991
C         -2.34102       -0.25768        0.02865
C         -1.99361        1.12199       -0.15318
C         -3.03360        2.02770       -0.26579
C         -4.35832        1.48998       -0.19388
C         -3.69209        0.24058        0.06817
N         -4.42216       -0.83828        0.47920
H         -5.38609       -0.69652        0.75957
H         -3.93081       -1.64529        0.84740
H         -5.17591        1.89428        0.39416
H         -2.83626        3.08844       -0.40307
C         -0.66054        1.52606       -0.19922
C          0.38418        0.59950       -0.10188
C          1.68972        1.12001       -0.12152
H          1.80188        2.19341       -0.26193
H         -0.43585        2.58535       -0.30827
H         -1.50558       -2.24627        0.15160
H          3.73995       -1.63467        0.64385
