27
Coordinates from ORCA-job ./opt_b97-3c_parallel
N          6.18497       -0.03345        0.11400
C          5.05750        0.14399        0.07367
C          3.63640        0.29964        0.03135
C          3.05494        1.60722        0.06685
C          1.72608        1.85302        0.01700
C          0.53177        0.98627       -0.00432
N         -0.63077        1.68295       -0.00827
C         -1.80521        1.01475       -0.02113
N         -3.02174        1.56344       -0.03103
C         -3.84283        0.49544       -0.04053
N         -4.83870        0.98751       -0.04668
H         -5.29446        1.89689       -0.14199
H         -5.60068        0.31463        0.06426
C         -3.32032       -0.78126       -0.03608
C         -3.66603       -1.83053       -0.03939
N         -4.58473       -2.39619        0.33554
C         -1.89412       -0.36221       -0.02431
C         -0.67695       -1.14973       -0.01078
C          0.57001       -0.41089       -0.01717
N          1.61259       -1.28078       -0.05261
C          2.91155       -0.88504       -0.03748
N          3.09273       -1.98040       -0.08700
H          4.11057       -1.88261       -0.08363
H          2.93373       -2.98100       -0.21243
H         -0.70962       -2.23521        0.04482
H          1.40949        2.89605        0.00389
H          3.74673        2.44299        0.13141
