28
Coordinates from ORCA-job ./opt_b97-3c_parallel
N         -1.87726       -4.07771        0.00145
C         -1.82073       -2.93554       -0.00489
C         -1.73551       -1.49374       -0.00656
C         -3.06590       -0.94484        0.00033
N         -3.57812        0.03260        0.00655
C         -3.03858        0.99249       -0.02143
N         -4.10954        1.83900       -0.07505
H         -3.96658        2.84027       -0.00021
H         -5.04978        1.47928        0.04488
C         -1.68366        1.47348       -0.01060
C         -0.51807        0.68494       -0.00452
C          0.72673        1.35411        0.00313
C          0.86484        2.79320        0.01009
N          0.98204        3.92963        0.02408
C          1.88140        0.58746        0.00577
C          1.88636       -0.76566        0.00124
N          3.13950       -1.27084        0.00558
C          3.83920       -0.38485        0.01283
N          5.19462       -0.52921        0.02356
H          5.61150       -1.45287       -0.00542
H          5.80075        0.28328        0.00392
C          3.24691        0.93254        0.01394
H          3.74070        1.89911        0.02203
C          0.68032       -1.45141       -0.00490
C         -0.54072       -0.74330       -0.00616
H          0.71373       -2.53800       -0.00687
H         -1.66964        2.56060       -0.00939
H         -4.01745       -1.46569        0.03030
