28
Coordinates from ORCA-job ./opt_b97-3c_parallel
N          4.96328        2.10169        0.01287
C          4.02133        1.45494       -0.00824
C          2.82515        0.65452       -0.04252
C          3.01343       -0.73816       -0.35052
N          2.38524       -1.64803       -0.32824
C          1.30564       -1.69774       -0.10253
N          1.33534       -2.91228        0.52753
H          2.15877       -3.50067        0.46442
H          0.48437       -3.30957        0.90854
C          0.17116       -0.80489       -0.05100
C         -1.10987       -1.36013       -0.14574
C         -2.24599       -0.55952       -0.05647
C         -2.13315        0.85454        0.15342
C         -3.57230        0.85109        0.08309
N         -3.86776        2.18248        0.16501
H         -4.81399        2.48732       -0.03423
H         -3.11579        2.85619        0.06628
C         -4.60067       -0.15104       -0.02749
C         -3.52255       -1.08458       -0.15108
H         -3.67554       -2.14967       -0.30985
H         -5.46428       -0.08692       -0.68134
C         -0.80216        1.39371        0.21185
C          0.33366        0.58737        0.10255
C          1.57302        1.24689        0.14417
H          1.56385        2.32295        0.30946
H         -0.72679        2.47180        0.33158
H         -1.22398       -2.43255       -0.28872
H          3.93407       -1.26039       -0.58448
