29
Coordinates from ORCA-job ./opt_b97-3c_parallel
N         -3.60664       -2.01900        1.60206
C         -3.20845       -1.12981        1.00423
C         -2.72129        0.02198        0.26679
C         -3.77113        0.91767        0.05357
C         -3.74067        2.20639       -0.43127
C         -2.62659        2.99737       -0.58663
C         -1.30331        2.68002       -0.33190
C         -0.66887        1.44306       -0.07533
C          0.74847        1.49882        0.07190
C          1.46294        2.75361        0.20591
N          2.00497        3.75474        0.31296
C          1.49126        0.31552        0.08660
C          0.87174       -0.90341       -0.08492
C          1.87049       -1.88676       -0.14799
C          1.75566       -3.31300       -0.32712
N          1.68783       -4.44372       -0.47712
C          3.09392       -1.26429        0.02039
C          2.87282        0.09226        0.17083
C          3.95149        1.02970        0.36290
N          4.81958        1.75586        0.52153
H          4.06410       -1.75680        0.02912
C         -0.52260       -0.99746       -0.15287
C         -1.08019       -2.27069       -0.56876
N         -1.52877       -3.26433       -0.91205
C         -1.32826        0.17553       -0.00544
H         -0.69308        3.56765       -0.45360
H         -2.81898        4.02575       -0.88576
H         -4.70220        2.68190       -0.61106
H         -4.77670        0.55756        0.27098
