24
Coordinates from ORCA-job ./opt_b97-3c_parallel
N         -1.75282       -3.47875        0.00437
C         -1.90083       -2.34603        0.00279
C         -2.02829       -0.91185        0.00164
C         -3.39469       -0.43914        0.00097
C         -3.83510        0.84137        0.00046
C         -2.97140        1.87105        0.00140
N         -1.68140        2.30533        0.00164
C         -0.73811        1.35214        0.00125
C          0.61835        1.85834        0.00138
C          1.66852        0.94526        0.00115
C          1.53249       -0.47455        0.00091
N          2.77011       -1.06838        0.00072
C          3.70700       -0.04410        0.00098
N          4.75431       -0.40269        0.00117
H          5.12865       -1.35328        0.00141
H          5.57534        0.20574        0.00120
C          3.12976        1.20313        0.00134
H          3.73117        2.11092        0.00166
N          0.26671       -0.77023        0.00108
C         -0.86364       -0.11431        0.00130
H          0.82850        2.92695        0.00179
H         -3.49889        2.83778        0.00190
H         -4.90531        1.03922        0.00248
H         -4.15378       -1.21745        0.00087
