23
Coordinates from ORCA-job ./opt_b97-3c_parallel
N         -2.16623       -3.44086        0.00302
C         -2.01429       -2.30779        0.00195
C         -1.84010       -0.87090        0.00067
C         -3.06777       -0.18230       -0.00076
C         -3.29788        1.19326       -0.00207
C         -2.30221        2.21924       -0.00241
N         -1.23527        1.99051       -0.00170
C         -0.26190        1.07357       -0.00029
C          1.05477        1.55931       -0.00008
C          2.11990        0.67144        0.00166
N          3.44462        0.93555        0.00231
C          3.96530       -0.06774        0.00400
C          3.13554       -1.25205        0.00479
C          1.86222       -0.65615        0.00306
C          0.58520       -1.19282        0.00275
C         -0.52804       -0.32075        0.00102
H          0.49112       -2.27491        0.00393
H          3.44013       -2.29344        0.00669
H          5.04550        0.01606        0.00494
H          1.24667        2.63022       -0.00115
H         -2.43724        3.29422        0.00357
H         -4.31533        1.57660       -0.00287
H         -3.97188       -0.78951       -0.00079
