30
Coordinates from ORCA-job ./opt_b97-3c_parallel
N         -1.61542       -3.90529        1.29310
C         -1.73670       -2.85851        0.85004
C         -1.91182       -1.52442        0.30776
C         -3.25800       -1.17276        0.37460
C         -3.86672        0.00240       -0.00098
C         -3.25557        1.17603       -0.37623
C         -1.90862        1.52656       -0.30598
C         -1.73162        2.85950       -0.84714
N         -1.60832        3.90616       -1.29156
C         -0.78178        0.71659        0.02266
C          0.46300        1.35760        0.31824
C          0.58335        2.69729        0.86533
N          0.68988        3.75299        1.29163
C          1.65298        0.64479        0.21299
C          1.65278       -0.64796       -0.20479
C          2.98132       -1.14952       -0.40280
C          3.76253       -0.00269        0.00637
N          5.12812       -0.00365        0.00830
H          5.64003        0.81338        0.32400
H          5.63965       -0.82070       -0.30792
C          2.98229        1.14555        0.41338
H          3.31795        2.12075        0.75171
H          3.31701       -2.12538       -0.73989
C          0.46177       -1.35782       -0.31036
C          0.58147       -2.69871       -0.85917
N          0.68691       -3.75432       -1.28435
C         -0.78262       -0.71694       -0.01687
H         -3.95482        1.95075       -0.69539
H         -4.95500        0.00295       -0.00176
H         -3.95851       -1.94605        0.69248
