29
Coordinates from ORCA-job ./opt_b97-3c_parallel
N         -5.55473       -2.17323       -0.08608
C         -4.62475       -1.50896       -0.06982
C         -3.44372       -0.68594       -0.06205
C         -3.64712        0.70486       -0.36927
N         -3.03442        1.62437       -0.32137
C         -1.96051        1.69040       -0.07433
N         -2.01577        2.89492        0.57281
H         -1.17769        3.29704        0.97654
H         -2.84752        3.47159        0.50862
C         -0.81321        0.81426       -0.02284
C          0.45912        1.38677       -0.12280
C          1.60743        0.60135       -0.04359
C          1.51221       -0.81103        0.18381
C          2.94851       -0.73998        0.10806
N          3.25355       -2.06048        0.29053
H          2.50836       -2.74618        0.24012
H          4.20264       -2.36934        0.10990
C          3.98570        0.24236       -0.08124
C          5.37750        0.46698       -0.30754
N          6.34105       -0.13840       -0.41155
C          2.87450        1.14361       -0.17410
H          3.00799        2.20855       -0.35120
C          0.19000       -1.37104        0.23682
C         -0.95668       -0.58099        0.12380
C         -2.18629       -1.25931        0.14652
H         -2.16272       -2.33597        0.30555
H          0.12912       -2.45080        0.35080
H          0.55632        2.46043       -0.27140
H         -4.55800        1.20145       -0.68348
