25
Coordinates from ORCA-job ./opt_b97-3c_parallel
N          1.16247        4.19054       -0.00218
C          1.45055        3.08442        0.00547
C          1.82630        1.68645        0.00471
C          3.22320        1.51257        0.00336
C          3.95677        0.32637        0.00210
C          3.42605       -1.00156        0.00304
N          2.34656       -1.16045        0.00220
C          1.08372       -0.70980        0.00217
C          0.02997       -1.65374        0.00103
C          0.28745       -3.07943       -0.00200
N          0.48592       -4.20509       -0.01408
C         -1.29055       -1.20671        0.00081
C         -1.53485        0.12508        0.00326
C         -2.93791        0.26065        0.00279
C         -3.83819        1.36894        0.00426
N         -4.30043        2.41410        0.00210
C         -3.25556       -1.15023       -0.00018
N         -2.43594       -1.92511       -0.00114
H         -4.22511       -1.63442       -0.00187
C         -0.53929        1.08543        0.00468
C          0.81429        0.68430        0.00390
H         -0.84924        2.12659        0.00600
H          3.96023       -1.94434        0.00597
H          5.04373        0.35837        0.00074
H          3.83106        2.41652        0.00296
