29
Coordinates from ORCA-job ./opt_b97-3c_parallel
N          1.58023        4.39555       -0.05122
C          1.69911        3.25865       -0.05722
C          1.86702        1.82352       -0.07040
C          3.25993        1.48694       -0.18320
N          3.91646        0.60074       -0.14018
C          3.50991       -0.41778       -0.02668
N          4.70454       -0.94476        0.39397
H          5.55903       -0.40960        0.28238
H          4.79081       -1.94878        0.51180
C          2.25238       -1.13366       -0.06527
C          2.39203       -2.57513       -0.12773
N          2.51117       -3.71173       -0.16614
C          0.98568       -0.51037       -0.05242
N         -0.10342       -1.32880       -0.05556
C         -1.33321       -0.77904       -0.02310
C         -1.50750        0.58568        0.02130
N         -0.45479        1.42766        0.01396
C          0.80167        0.90470       -0.03086
C         -2.84651        1.09574        0.07104
C         -3.37371        2.39634        0.34681
N         -4.38464        2.92343        0.42992
C         -3.14531       -0.31942        0.04332
N         -4.49524       -0.53091        0.14383
H         -5.12614        0.25977        0.05811
H         -4.86268       -1.46259       -0.02231
C         -2.50013       -1.61205       -0.03105
C         -2.64925       -3.00699       -0.30920
N         -3.39955       -3.86196       -0.42357
H          4.10539        2.14392       -0.35821
