24
Coordinates from ORCA-job ./opt_b97-3c_parallel
N          5.82894        0.80414        0.00090
C          4.69070        0.71213        0.00020
C          3.27070        0.54844       -0.00093
C          2.59863        1.74588       -0.00090
C          1.24938        1.98087       -0.00083
C          0.16706        1.13057       -0.00173
N         -1.06010        1.72765       -0.00115
C         -2.22873        0.96262       -0.00169
N         -3.57597        1.25505       -0.00050
C         -4.30616        0.07474       -0.00114
N         -5.41358        0.08263       -0.00087
H         -6.07997        0.85971       -0.00134
H         -5.99995       -0.75602       -0.00125
N         -3.38491       -0.96518       -0.00226
C         -2.10470       -0.45148       -0.00256
N         -0.92335       -0.97250       -0.00297
C          0.21243       -0.33238       -0.00271
C          1.34296       -1.16415       -0.00205
C          1.17905       -2.59526       -0.00081
N          1.00204       -3.72306        0.00330
C          2.72816       -0.77454       -0.00132
H          3.46218       -1.57844       -0.00085
H          1.00636        3.04278       -0.00043
H          3.20800        2.64951       -0.00031
