26
Coordinates from ORCA-job ./opt_b97-3c_parallel
N          2.59515        3.65158       -0.00021
C          2.45112        2.51721       -0.00097
C          2.29100        1.07649       -0.00148
C          3.51986        0.39075       -0.00204
C          3.75155       -0.98488       -0.00343
C          2.75638       -2.01162       -0.00201
N          1.69432       -1.76004       -0.00029
C          0.70490       -0.85516        0.00076
C         -0.63116       -1.30661        0.00371
C         -0.96937       -2.71345        0.00465
N         -1.25231       -3.82106        0.00509
C         -1.64623       -0.35647        0.00507
C         -1.32276        0.96876        0.00132
N         -0.06031        1.42729       -0.00124
C          0.97578        0.53809       -0.00054
C         -2.46348        1.82552       -0.00310
C         -3.49507        0.80719        0.00485
N         -4.79750        1.21474        0.00977
H         -5.54683        0.53137        0.00436
H         -5.02201        2.20391        0.00099
C         -3.06044       -0.57594        0.01206
H         -3.63585       -1.49624       -0.00670
H         -2.53309        2.90863        0.01111
H          2.89183       -3.08713       -0.00195
H          4.76994       -1.36622       -0.00296
H          4.42168        1.00116       -0.00240
