25
Coordinates from ORCA-job ./opt_b97-3c_parallel
N          0.05260        4.38174       -0.00673
C         -0.26702        3.28553       -0.01614
C         -0.71801        1.92266       -0.02132
C         -2.14689        1.89181       -0.01037
N         -2.97704        0.85051       -0.05626
C         -2.75442       -0.46172       -0.05450
N         -3.85884       -0.54372       -0.10509
H         -3.88441       -1.56320       -0.15979
H         -4.82392       -0.24014       -0.23716
C         -1.50311       -1.16213        0.04026
C         -1.73823       -2.57885        0.10092
N         -1.98106       -3.69378        0.14718
C         -0.21679       -0.60203        0.03512
C          0.86227       -1.60110        0.08452
C          2.22370       -1.18006        0.03087
C          2.48256        0.16782       -0.05985
N          3.80933        0.41139       -0.12084
C          4.14246       -0.89881       -0.05563
N          3.29352       -1.90272        0.03838
H          5.20237       -1.19529       -0.08222
C          1.52168        1.13107       -0.08047
C          0.15879        0.83010       -0.02708
H          1.89363        2.14813       -0.14687
H          0.70114       -2.67198        0.14571
H         -2.84825        2.74088       -0.00856
