27
Coordinates from ORCA-job ./opt_b97-3c_parallel
N         -3.02422       -3.71934       -0.00199
C         -2.80531       -2.59728       -0.00191
C         -2.55009       -1.16948       -0.00167
C         -3.75058       -0.46153       -0.00140
C         -3.97393        0.89947       -0.00122
C         -3.04399        1.91679       -0.00130
C         -1.65418        1.84494       -0.00151
C         -1.05909        3.17186       -0.00155
N         -0.60781        4.22251       -0.00135
C         -0.81215        0.70458       -0.00164
N          0.52042        1.01678       -0.00171
C          1.42885        0.03735       -0.00168
C          1.14782       -1.27809       -0.00168
N          2.25041       -2.05650       -0.00117
C          3.08303       -1.29453       -0.00053
N          4.35690       -1.78564        0.00125
H          4.52339       -2.78566       -0.00422
H          5.15163       -1.15506       -0.00352
C          2.83516        0.13384       -0.00084
C          3.62073        1.32800        0.00007
N          4.54574        2.00004       -0.00210
C         -0.18460       -1.65215       -0.00182
C         -1.21875       -0.67320       -0.00166
H         -0.37170       -2.72147       -0.00201
H         -3.48273        2.91451       -0.00120
H         -5.01659        1.21015       -0.00095
H         -4.66819       -1.05059       -0.00135
