25
Coordinates from ORCA-job ./opt_b97-3c_parallel
N         -1.15721       -3.76363       -0.65332
C         -1.20401       -2.63797       -0.45883
C         -1.29701       -1.22339       -0.25762
C         -2.66811       -1.04746       -0.13652
N         -3.47614       -0.01718        0.17865
C         -2.89316        1.22506        0.11129
N         -3.78262        1.76488        0.48461
H         -3.60279        2.69926        0.85268
H         -4.76130        1.56816        0.69820
C         -1.76179        1.68984       -0.47221
C         -0.52301        1.18004       -0.23072
C          0.57416        2.11853       -0.19964
C          1.87275        1.69641       -0.06463
C          2.11586        0.31901        0.08254
N          3.42629        0.13915        0.20373
C          3.86032        1.45237        0.11144
N          2.96147        2.38898       -0.04406
H          4.94909        1.60678        0.16760
C          1.08434       -0.69381        0.07367
C          1.65921       -1.98739        0.32862
N          1.49164       -2.42498        1.37289
C         -0.22125       -0.24135       -0.12256
H          0.34979        3.17510       -0.32002
H         -1.84714        2.51932       -1.17503
H         -3.54280       -1.71921       -0.14346
