30
Coordinates from ORCA-job ./opt_b97-3c_parallel
N         -5.65462       -1.42448       -0.00353
C         -4.57155       -1.05833       -0.00714
C         -3.17686       -0.62888       -0.00362
C         -2.18830       -1.68647       -0.00514
C         -0.82557       -1.59188        0.00420
C          0.10152       -0.59510       -0.00126
C         -0.22080        0.84023        0.00069
N          0.65604        1.54305        0.00131
C          1.98889        1.39929        0.00182
N          2.94836        2.33043        0.00355
C          3.57715        1.40066        0.00258
C          3.94149        0.06816        0.00088
C          4.92122       -0.43813        0.00070
N          5.60919       -1.35085        0.00038
C          2.46528        0.13151        0.00002
C          1.54763       -0.92033       -0.00244
C          2.10969       -2.25273       -0.00560
N          2.53981       -3.31042       -0.00605
H          4.42175        2.10992        0.00266
C         -1.51492        1.40950        0.00322
C         -1.57509        2.87320        0.00687
N         -1.79960        3.99485        0.00141
C         -2.83989        0.74133        0.00141
N         -3.73913        1.41030        0.00282
H         -3.72569        2.42922       -0.00092
H         -4.72108        1.13861       -0.00046
H         -0.32528       -2.56332        0.01868
N         -2.47920       -2.76272       -0.00984
H         -3.46726       -3.01121       -0.00079
H         -1.95956       -3.63832       -0.00061
