27
Coordinates from ORCA-job ./opt_b97-3c_parallel
N         -1.79096       -3.80871        0.02103
C         -1.72504       -2.66800        0.02057
C         -1.62602       -1.22644        0.02091
C         -2.94155       -0.64761        0.09560
N         -3.43065        0.34247        0.09093
C         -2.86153        1.28634        0.07076
N         -3.92832        2.13949        0.04153
H         -3.77980        3.13087       -0.11184
H         -4.86736        1.77316       -0.07020
C         -1.49794        1.74560        0.03180
C         -0.36546        0.92439       -0.02988
N          0.81913        1.58532       -0.08330
C          1.96314        0.87754       -0.15034
C          1.99075       -0.49840       -0.16491
C          3.27476       -1.12804       -0.23508
C          3.78236        0.22305       -0.16519
N          5.14180        0.28827       -0.03772
H          5.60256        1.18449       -0.15468
H          5.69001       -0.55435       -0.17243
C          3.22273        1.55416       -0.20659
H          3.50190        2.38893        0.42884
H          3.58805       -1.96252        0.38423
C          0.79304       -1.20064       -0.10796
C         -0.42218       -0.49689       -0.03866
H          0.82729       -2.28683       -0.11830
H         -1.38919        2.82837        0.04040
H         -3.90623       -1.14272        0.06862
