25
Coordinates from ORCA-job ./opt_b97-3c_parallel
N         -1.71648       -3.84057        0.00540
C         -1.66652       -2.69838        0.00188
C         -1.58711       -1.25438       -0.00368
C         -2.90761       -0.68195       -0.00803
N         -3.37355        0.31928       -0.00239
C         -2.84477        1.28683       -0.01355
N         -3.87780        2.18051       -0.02822
H         -3.68792        3.17417        0.04889
H         -4.83537        1.86391        0.07259
C         -1.47533        1.72675       -0.01542
C         -0.34198        0.90770       -0.00930
N          0.83673        1.58123       -0.00824
C          1.99072        0.88277       -0.00155
N          3.25384        1.32098        0.00152
C          3.45889        0.20812        0.00626
N          4.82527        0.31419        0.01902
H          5.40532       -0.51672        0.02079
H          5.27164        1.22483        0.01481
N          3.28151       -0.91087        0.00916
C          2.01986       -0.46854        0.00333
C          0.83952       -1.20358        0.00201
C         -0.38784       -0.51483       -0.00384
H          0.89660       -2.28938        0.00611
H         -1.36782        2.80964       -0.02000
H         -3.86679       -1.18873       -0.00818
