27
Coordinates from ORCA-job ./opt_b97-3c_parallel
N         -3.07294       -3.28302       -0.00321
C         -3.28344       -2.15950       -0.00226
C         -2.79551       -0.80546       -0.00112
C         -3.98563        0.00205       -0.00044
C         -4.07546        1.34877        0.00159
C         -3.18090        2.35923       -0.00006
C         -1.75563        2.26858       -0.00015
C         -0.98174        1.03656        0.00030
C         -1.47915       -0.34724       -0.00040
N         -0.57101       -1.40979       -0.00089
C          0.78547       -1.17630       -0.00057
N          1.66614       -2.23223       -0.00147
C          2.91138       -1.65648       -0.00059
N          3.73444       -2.39999       -0.00176
H          4.66344       -1.97161       -0.00133
H          3.90761       -3.40699       -0.00288
C          2.74522       -0.23051        0.00024
C          3.87504        0.64145        0.00079
N          4.80546        1.30219        0.00107
C          1.34253        0.13619        0.00069
C          0.45750        1.26577        0.00080
C          1.15142        2.51744        0.00129
N          1.74214        3.49395        0.00152
H         -1.25123        3.22910       -0.00042
H         -3.56378        3.37648       -0.00030
H         -5.10534        1.70248        0.00384
H         -4.95010       -0.50628       -0.00110
