24
Coordinates from ORCA-job ./opt_b97-3c_parallel
N          2.09840        3.41730        0.00001
C          1.96548        2.28171        0.00035
C          1.81711        0.83936        0.00061
C          3.06308        0.20781        0.00059
C          3.38123       -1.13880        0.00061
C          2.51988       -2.21753        0.00045
C          1.13533       -2.21092        0.00032
C          0.23150       -1.14258        0.00044
C         -1.10866       -1.58457        0.00020
C         -2.15613       -0.67987        0.00023
C         -1.87172        0.63670        0.00068
C         -3.13092        1.26133        0.00068
C         -3.98662        0.09570        0.00000
N         -3.48568       -0.91787       -0.00011
H         -5.06845        0.03698       -0.00052
H         -3.41161        2.30938        0.00087
C         -0.58497        1.14045        0.00092
C          0.52343        0.25509        0.00064
H         -0.48936        2.22181        0.00133
H         -1.35094       -2.64536       -0.00005
H          0.70795       -3.21198        0.00013
H          2.98994       -3.19848        0.00037
H          4.44247       -1.37732        0.00064
H          3.93739        0.85853        0.00056
