26
Coordinates from ORCA-job ./opt_b97-3c_parallel
N         -1.41566       -4.14383       -0.00142
C         -1.55141       -3.00846       -0.00081
C         -1.74866       -1.56911       -0.00005
C         -3.10199       -1.24064        0.00140
C         -3.70519        0.00017        0.00226
C         -3.10222        1.24106        0.00158
C         -1.74868        1.56931        0.00027
C         -1.55232        3.00911       -0.00003
N         -1.41851        4.14434       -0.00045
C         -0.61660        0.71787       -0.00071
N          0.58319        1.38293       -0.00154
C          1.72132        0.67753       -0.00287
C          1.72137       -0.67647       -0.00314
N          0.58327       -1.38196       -0.00218
C         -0.61655       -0.71741       -0.00133
C          3.03185       -1.23972       -0.00468
C          3.78858        0.00028       -0.00438
N          5.15500        0.00009        0.00134
H          5.66638        0.87613       -0.00727
H          5.66629       -0.87603       -0.00740
C          3.03192        1.24038       -0.00448
H          3.35793        2.27514       -0.00422
H          3.35782       -2.27455       -0.00452
H         -3.80692        2.07252        0.00221
H         -4.79316       -0.00010        0.00377
H         -3.80636       -2.07231        0.00186
