31
Coordinates from ORCA-job ./opt_b97-3c_parallel
N         -6.10168       -0.41545        0.57756
C         -4.97884       -0.28442        0.40332
C         -3.55949       -0.10255        0.18137
C         -2.82528       -1.32927        0.06778
N         -1.74263       -1.45608        0.09605
C         -0.57084       -0.81208        0.06008
C          0.56945       -1.61586        0.11499
C          1.81649       -1.02156        0.06132
C          1.96050        0.34288       -0.06157
C          3.33637        0.60738       -0.08820
C          4.01553        1.87433       -0.19353
N          4.57154        2.86935       -0.27528
C          4.01080       -0.60320        0.02362
C          3.06781       -1.61459        0.11447
C          3.35283       -3.01853        0.25632
N          3.57117       -4.13314        0.38026
H          5.09043       -0.73373        0.04255
C          0.83436        1.17831       -0.12338
C          1.02830        2.60644       -0.25811
N          1.16071        3.73660       -0.36711
C         -0.46498        0.59838       -0.04195
C         -1.59774        1.45501       -0.03547
C         -2.96961        1.16961        0.09944
N         -3.78897        2.26838        0.16994
H         -3.37153        3.18021        0.32092
H         -4.75512        2.13589        0.45113
H         -1.41037        2.52201       -0.10413
H          0.47944       -2.69762        0.19843
N         -3.25212       -2.44020       -0.60550
H         -4.24642       -2.57307       -0.75581
H         -2.66198       -3.26436       -0.62487
