26
Coordinates from ORCA-job ./opt_b97-3c_parallel
N         -4.79511       -2.07569        0.51287
C         -4.08685       -1.32086        0.02790
C         -3.15412       -0.24240       -0.04201
C         -1.76288       -0.02729       -0.05383
C         -1.60442        1.31813       -0.11156
N         -2.77390        1.98841       -0.14470
C         -3.53390        1.15384       -0.10458
H         -4.52254        1.59711       -0.11275
C         -0.31180        1.82397       -0.11543
C          0.76916        0.92719       -0.05118
C          2.04527        1.51985       -0.00468
C          3.30770        0.91786        0.11534
N          4.38541        1.75323        0.21774
H          5.32301        1.36666        0.20718
H          4.26359        2.75115        0.08489
C          3.57341       -0.45162        0.15428
C          2.58731       -1.48078        0.02322
N          1.50300       -1.34886        0.01986
C          0.49784       -0.46601       -0.01002
N         -0.77644       -0.93832       -0.00790
N          2.89207       -2.77681       -0.27377
H          3.85451       -3.09332       -0.24577
H          2.15550       -3.47311       -0.29999
H          4.59326       -0.81324        0.26897
H          2.05981        2.60804       -0.03479
H         -0.15487        2.89955       -0.15220
