28
Coordinates from ORCA-job ./opt_b97-3c_parallel
N         -6.11741       -1.45846       -0.00122
C         -5.02942       -1.11058       -0.00109
C         -3.66619       -0.64252       -0.00079
C         -2.67500       -1.67589       -0.00022
N         -1.60832       -1.43584        0.00000
C         -0.60350       -0.54706        0.00035
C          0.72432       -1.02529        0.00062
C          1.03308       -2.43824        0.00023
N          1.29754       -3.55006       -0.00009
C          1.76033       -0.09886        0.00130
C          1.54520        1.23908        0.00172
N          2.68960        1.95358        0.00268
C          3.49456        1.16586        0.00269
N          4.79093        1.60044        0.00333
H          5.00637        2.59133        0.00385
H          5.55623        0.93394        0.00288
C          3.16836       -0.24767        0.00189
C          4.09884       -1.33264        0.00167
N          4.98354       -2.05635        0.00182
C          0.24568        1.72679        0.00133
C         -0.86542        0.84880        0.00047
C         -2.17655        1.40319       -0.00017
C         -2.34855        2.83992       -0.00043
N         -2.49904        3.97301       -0.00061
C         -3.41287        0.73020       -0.00078
H         -4.30491        1.35742       -0.00125
H          0.13356        2.80742        0.00170
H         -2.81842       -2.75071        0.00025
