23
Coordinates from ORCA-job ./opt_b97-3c_parallel
N         -5.49943       -0.81068       -0.00267
C         -4.36447       -0.67581       -0.00080
C         -2.95233       -0.46623        0.00056
C         -2.27990       -1.65383       -0.00225
N         -1.00701       -2.04462       -0.00342
C          0.07321       -1.18758       -0.00117
C          1.37719       -1.82207       -0.00406
C          2.50750       -1.01190       -0.00189
C          2.57490        0.41319        0.00317
N          3.86970        0.88898        0.00438
C          4.65671       -0.17803        0.00015
C          3.94891       -1.30279       -0.00375
H          4.44264       -2.27246       -0.00749
H          5.72923        0.07270        0.00064
N          1.33394        0.80014        0.00489
C          0.13520        0.27535        0.00327
C         -0.99692        1.19468        0.00498
C         -0.74601        2.60798        0.00700
N         -0.50628        3.72479        0.00467
C         -2.39337        0.84603        0.00407
H         -3.10710        1.66684        0.00555
H          1.48765       -2.90500       -0.00843
H         -2.68693       -2.67756       -0.00508
