27
Coordinates from ORCA-job ./opt_b97-3c_parallel
N         -5.52393       -1.73769       -0.64497
C         -4.49286       -1.31536       -0.39479
C         -3.19547       -0.82143       -0.05335
C         -2.32698       -1.79326        0.40266
N         -0.99212       -1.88925        0.58628
C         -0.11094       -0.83236        0.36385
N          1.11918       -1.24751        0.31504
C          2.11381       -0.44591        0.08507
C          1.86922        0.94838       -0.08828
C          3.02411        1.62849       -0.29500
C          3.99460        0.72754       -0.27001
C          3.48523       -0.52564       -0.05183
C          4.33032       -1.67721        0.01792
N          4.05127       -2.71847       -0.36305
H          5.05169        0.95527       -0.39564
H          3.14611        2.70021       -0.44073
C          0.57888        1.45347        0.00757
C          0.40116        2.87348       -0.12020
N          0.41096        3.54588        0.80395
C         -0.47004        0.56558        0.23969
C         -1.71940        1.05571        0.46550
C         -2.81720        0.55761       -0.16127
N         -3.33537        1.46028       -0.53212
H         -3.31894        2.47283       -0.65613
H         -4.29924        1.17475       -0.70832
H         -1.86200        1.65736        1.36594
H         -2.51585       -2.86422        0.57579
