30
Coordinates from ORCA-job ./opt_b97-3c_parallel
N         -3.96637       -2.74667       -1.03044
C         -3.60138       -1.77056       -0.55913
C         -3.10451       -0.55515        0.00972
C         -1.70026       -0.29381       -0.02172
N         -0.67550       -1.16625       -0.08963
C          0.58424       -0.64221       -0.07176
C          1.72351       -1.63452       -0.07995
C          1.59530       -2.73549       -0.18594
N          1.46791       -3.86678       -0.08299
C          3.07235       -1.38053        0.06318
N          3.92075       -0.28002        0.01041
C          3.27589        0.93933       -0.14812
N          3.89233        1.84221       -0.28781
H          3.75521        2.79785       -0.61645
H          4.85406        1.59667       -0.52214
N          2.01904        1.23690       -0.09081
C          0.80456        0.75470       -0.01398
C         -0.29176        1.63097        0.10244
C         -0.13258        3.05888        0.24071
N          0.02258        4.18435        0.35844
C         -1.55736        1.05678        0.10034
C         -2.90649        1.65024        0.22806
C         -3.77613        0.63366        0.17052
N         -5.10588        0.78083        0.27465
H         -5.54067        1.69008        0.12849
H         -5.73225        0.06618       -0.09333
H         -3.24469        2.67617        0.35965
N          4.12729       -1.65426        0.30198
H          5.09318       -1.78275        0.60553
H          3.63920       -2.50290        0.58898
