29
Coordinates from ORCA-job ./opt_b97-3c_parallel
N          5.80108        1.05678       -0.00265
C          4.69552        0.76857       -0.03242
C          3.30523        0.39072       -0.06396
C          2.48567        1.57983       -0.05702
N          1.38060        1.62268       -0.01420
C          0.26818        0.84791        0.03095
C          0.37993       -0.56171        0.02953
N          1.59984       -1.15214       -0.01256
C          2.67625       -0.90867       -0.04885
N          3.36194       -2.08842       -0.04267
H          2.86509       -2.97086        0.00941
H          4.37587       -2.09479       -0.01884
C         -0.78238       -1.35150        0.07459
C         -0.69514       -2.79643        0.07171
N         -0.63977       -3.93829        0.06250
C         -2.03717       -0.73807        0.12299
C         -2.14665        0.63897        0.12562
C         -3.48455        1.15912        0.18073
C         -3.96503       -0.19843        0.12410
N         -5.31591       -0.29924       -0.04764
H         -5.88913        0.53067        0.06010
H         -5.75920       -1.20552        0.05760
C         -3.27609       -1.46312        0.17725
H         -3.51301       -2.34589       -0.40922
H         -3.85753        1.99451       -0.40463
C         -1.00467        1.44350        0.07982
C         -1.14838        2.88379        0.08395
N         -1.27696        4.01961        0.08335
H          2.78812        2.61906       -0.00045
