29
Coordinates from ORCA-job ./opt_b97-3c_parallel
N         -5.18253       -2.48909       -0.18355
C         -4.23528       -1.85413       -0.10439
C         -3.04463       -1.03744       -0.01203
C         -1.92597       -1.91997        0.10257
N         -0.92083       -1.50677        0.06941
C         -0.05015       -0.49306        0.04652
C         -0.51384        0.84928        0.07309
C          0.47102        1.86703        0.08447
C          1.81526        1.54228        0.04322
C          2.25335        0.24197       -0.00233
C          3.64984        0.27411       -0.05235
C          4.57492       -0.82785       -0.12997
N          5.32249       -1.68965       -0.19705
C          4.04248        1.60824       -0.03441
C          2.90358        2.39859        0.02674
H          2.87326        3.48559        0.04963
H          5.06714        1.97149       -0.06842
C          1.33024       -0.80459        0.00638
C          1.77658       -2.18247       -0.01904
N          2.11262       -3.27493       -0.03502
H          0.23331        2.92630        0.11061
C         -1.89724        1.22084        0.07208
C         -2.20137        2.64376        0.11649
N         -2.45170        3.75944        0.14490
C         -3.04131        0.36991        0.00294
N         -4.29193        0.94844       -0.06388
H         -5.08996        0.36558       -0.29461
H         -4.36333        1.94612       -0.23532
H         -1.90382       -2.96840        0.37912
