26
Coordinates from ORCA-job ./opt_b97-3c_parallel
N         -5.75145       -1.05896       -0.00161
C         -4.62569       -0.86169       -0.00091
C         -3.21224       -0.58318       -0.00047
C         -2.36171       -1.73466        0.00127
N         -1.26912       -1.68823        0.00255
C         -0.17363       -0.91841        0.00251
C          1.06696       -1.58034        0.00439
C          2.24547       -0.84489        0.00375
N          3.52822       -1.27440        0.00483
C          4.17921       -0.34879        0.00350
N          5.54243       -0.38781        0.00419
H          6.03360       -1.27431        0.00669
H          6.08117        0.47138        0.00408
C          3.50636        0.93031        0.00119
C          2.16826        0.50440        0.00142
C          0.97907        1.20888       -0.00053
C         -0.24314        0.49999        0.00014
C         -1.46061        1.23527       -0.00202
C         -1.42318        2.68255       -0.00463
N         -1.40801        3.82462       -0.00478
C         -2.77748        0.74228       -0.00180
H         -3.57330        1.48731       -0.00313
H          1.03870        2.29343       -0.00258
H          3.93820        1.92564       -0.00016
H          1.11135       -2.66761        0.00585
H         -2.64093       -2.78125        0.00021
