27
Coordinates from ORCA-job ./opt_b97-3c_parallel
N         -5.46191       -0.91756        0.00177
C         -4.33562       -0.72154        0.00305
C         -2.91524       -0.45507        0.00374
C         -2.16443       -1.67351        0.00026
N         -1.07404       -1.74182        0.00096
C          0.08382       -1.07175        0.00213
C          1.25179       -1.84481        0.00171
C          2.47783       -1.20541        0.00185
C          2.56379        0.16337        0.00235
C          3.90950        0.51097        0.00201
C          4.64382       -0.67051        0.00142
C          3.75576       -1.74072        0.00138
H          4.01696       -2.79616        0.00106
H          5.72863       -0.74352        0.00119
H          4.31997        1.51824        0.00217
C          1.42588        0.96716        0.00344
C          1.62049        2.40045        0.00505
N          1.77559        3.53311       -0.00527
C          0.14671        0.34662        0.00347
C         -1.00503        1.17231        0.00535
C         -2.37074        0.83814        0.00634
N         -3.23528        1.90279        0.01139
H         -2.87777        2.85172       -0.00234
H         -4.23764        1.74527       -0.00268
H         -0.84043        2.24541        0.00677
H          1.20148       -2.93180        0.00110
H         -2.52339       -2.69612       -0.00022
