26
Coordinates from ORCA-job ./opt_b97-3c_parallel
N          5.54928        0.99630        0.23216
C          4.43172        0.75497        0.21194
C          3.02913        0.43226        0.17774
C          2.23717        1.63650        0.11705
N          1.13206        1.64900        0.05475
C          0.02824        0.86214        0.03977
C          0.14882       -0.55049        0.12228
N          1.37501       -1.13006        0.14176
C          2.45186       -0.88800        0.09623
N          3.06584       -1.93843       -0.52270
H          4.06328       -1.90156       -0.70438
H          2.60338       -2.83968       -0.57055
C         -1.00882       -1.35579        0.16440
C         -0.92133       -2.79404        0.29410
N         -0.84713       -3.92842        0.41282
C         -2.26262       -0.74998        0.07545
N         -3.48883       -1.32126        0.07393
C         -4.25083       -0.49519       -0.02999
C         -3.73380        0.85111       -0.11481
C         -2.34845        0.59981       -0.03796
C         -1.24777        1.44494       -0.04778
C         -1.44340        2.87317       -0.14612
N         -1.61400        4.00034       -0.22483
H         -4.28565        1.77663       -0.24464
H         -5.27693       -0.84245       -0.06448
H          2.42561        2.59327        0.59050
