29
Coordinates from ORCA-job ./opt_b97-3c_parallel
N         -6.23344       -1.37761       -0.16556
C         -5.12866       -1.08888       -0.11817
C         -3.73923       -0.71227       -0.07242
C         -2.86888       -1.83984       -0.20066
N         -1.80566       -1.61570       -0.11397
C         -0.70445       -0.85993       -0.01230
C          0.53897       -1.52333        0.01771
C          0.59505       -2.97170        0.01755
N          0.62036       -4.11452        0.01719
C          1.70540       -0.76162        0.02851
C          1.64565        0.61681       -0.05288
C          2.96627        1.08984       -0.09783
C          3.46040        2.44289       -0.16553
N          3.87280        3.50702       -0.22162
C          3.81780        0.00064       -0.02308
C          3.04939       -1.14650        0.05393
C          3.61961       -2.46664        0.14820
N          4.08946       -3.50523        0.22856
H          4.90522        0.04041       -0.02261
C          0.41533        1.29540       -0.08486
C          0.45122        2.70107       -0.43190
N          0.48227        3.80305       -0.73320
C         -0.80308        0.55583        0.04046
C         -2.07961        1.18728        0.23941
C         -2.19067        2.54886        0.71995
N         -2.30568        3.61254        1.12268
C         -3.36726        0.61097        0.17884
H         -4.20996        1.28238        0.34903
H         -2.96133       -2.69676       -0.85806
