24
Coordinates from ORCA-job ./opt_b97-3c_parallel
N         -1.49284       -3.91962        0.00291
C         -1.50582       -2.77671        0.00220
C         -1.54123       -1.33320        0.00177
C         -2.89670       -0.82831        0.00226
N         -3.24482        0.22717        0.00293
C         -2.73653        1.21445        0.00175
N         -3.62282        2.24829       -0.00991
H         -3.29472        3.20704        0.00250
H         -4.62040        2.06939        0.00293
N         -1.67735        1.54343        0.00200
C         -0.49152        0.89164        0.00161
C          0.68205        1.65179        0.00185
C          1.90234        0.98620        0.00137
N          3.13730        1.49871        0.00136
C          3.37912        0.39266        0.00085
N          4.74895        0.34532        0.00057
H          5.29425        1.19934        0.00080
H          5.23351       -0.54604        0.00037
N          3.23333       -0.72958        0.00061
C          1.94646       -0.36778        0.00088
N          0.83346       -1.13356        0.00080
C         -0.38496       -0.52562        0.00130
H          0.64526        2.73883        0.00228
H         -3.82864       -1.38139       -0.00273
