27
Coordinates from ORCA-job ./opt_b97-3c_parallel
N         -4.46881       -2.47662       -0.80000
C         -4.19202       -1.53438       -0.21662
C         -3.18419       -0.53410       -0.06067
C         -1.78127       -0.40118       -0.02865
C         -1.53647        0.92534        0.13979
N         -2.68328        1.63660        0.22120
C         -3.50048        0.86655        0.11431
H         -4.46679        1.35446        0.15945
C         -0.21689        1.38092        0.20175
C          0.04031        2.79279        0.38512
N          0.24419        3.90603        0.54595
C          0.83971        0.45292        0.08360
N          2.12559        0.88305        0.07775
C          3.16370        0.51903       -0.01867
N          3.95570        1.54212       -0.45056
H          4.86308        1.34069       -0.85544
H          3.54665        2.45323       -0.62758
C          3.56586       -0.86375       -0.07422
C          2.62455       -1.95513       -0.04375
N          2.94682       -3.19667        0.42007
H          3.87290       -3.36247        0.79789
H          2.20690       -3.83608        0.68657
N          1.52380       -1.86532       -0.09302
C          0.54867       -0.92926       -0.04882
C         -0.78061       -1.35464       -0.11768
H         -1.02776       -2.40789       -0.23163
H          4.60351       -1.12201       -0.27121
