23
Coordinates from ORCA-job ./opt_b97-3c_parallel
N          5.63391        0.08788       -0.00531
C          4.49381        0.00237       -0.00360
C          3.06022       -0.12003       -0.00141
C          2.30513        1.10850       -0.00067
N          1.19883        1.11476       -0.00065
C          0.09576        0.32674       -0.00020
C          0.23749       -1.08467        0.00013
N          1.45258       -1.67692       -0.00033
C          2.53818       -1.46417       -0.00095
H          3.08283       -2.40076       -0.00130
C         -0.89915       -1.89771        0.00081
C         -2.13923       -1.28279        0.00127
C         -3.44484       -1.80623        0.00236
C         -4.21391       -0.58246        0.00286
N         -3.62776        0.38313        0.00215
C         -2.31225        0.06329        0.00123
C         -1.19421        0.90142        0.00020
C         -1.37939        2.33592       -0.00010
N         -1.51296        3.47167        0.00076
H         -5.28940       -0.44769        0.00381
H         -3.80492       -2.82986        0.00275
H         -0.81593       -2.98213        0.00106
H          2.67251        2.12767       -0.00156
