27
Coordinates from ORCA-job ./opt_b97-3c_parallel
N          6.12827        1.30729       -0.00386
C          5.02232        1.02168       -0.00088
C          3.65071        0.62016        0.00069
C          2.58934        1.57648        0.00254
N          1.49874        1.46211        0.00333
C          0.69423        0.71317        0.00198
C         -0.67993        1.20344       -0.00194
C         -1.07228        2.58211       -0.00525
N         -1.42963        3.66516       -0.00824
C         -1.72923        0.20262       -0.00060
C         -1.48886       -1.21730        0.00295
N         -2.60221       -2.02727        0.00562
C         -3.66216       -1.15588        0.00407
N         -4.63261       -1.69574        0.00611
H         -5.47291       -1.11144        0.00443
H         -4.98093       -2.65664        0.00828
C         -3.17715        0.13488        0.00050
C         -4.03455        1.27884       -0.00126
N         -5.04092        1.81785       -0.00267
N         -0.21938       -1.48981        0.00282
C          0.83700       -0.73074        0.00308
C          2.08392       -1.35987        0.00294
C          2.34815       -2.77189        0.00341
N          2.17739       -3.89907       -0.00062
C          3.40835       -0.74288        0.00072
H          4.28316       -1.39460       -0.00034
H          2.99392        2.60119        0.00360
