31
Coordinates from ORCA-job ./opt_b97-3c_parallel
N         -5.52535       -1.77032       -0.39932
C         -4.46335       -1.35958       -0.29737
C         -3.12326       -0.82659       -0.18052
C         -2.23194       -1.94084       -0.24431
N         -1.17063       -1.73371       -0.13009
C         -0.10040       -0.93972       -0.02694
C          1.16344       -1.55439        0.05722
C          1.29542       -2.99556        0.14181
N          1.41009       -4.13019        0.21958
C          2.31501       -0.77474        0.05676
C          2.21728        0.58537       -0.12462
C          3.47377        1.27472       -0.25413
C          4.14795        0.02624       -0.01198
N          5.48745        0.24711        0.13056
H          5.86510        1.15462       -0.12046
H          6.11766       -0.54759        0.14365
C          3.64410       -1.31403        0.13871
H          3.97775       -2.03760        0.87664
H          3.74018        1.98165       -1.03471
C          0.96940        1.21649       -0.19718
C          1.00759        2.59515       -0.64840
N          1.05574        3.67228       -1.02862
C         -0.23715        0.46981       -0.02399
C         -1.51293        1.09976        0.18789
C         -1.52402        2.45268        0.72499
N         -1.55293        3.50569        1.17074
C         -2.81542        0.51663        0.10385
N         -3.91910        1.32303        0.29614
H         -3.78387        2.24691        0.69399
H         -4.82602        0.88428        0.41894
H         -2.27787       -2.81246       -0.88775
