25
Coordinates from ORCA-job ./opt_b97-3c_parallel
N         -1.79487       -3.21792        0.80888
C         -2.06648       -2.38470        0.07313
C         -1.65802       -1.35247        0.03119
C         -2.91110       -0.77822        0.02577
N         -3.67444        0.37681       -0.01473
C         -2.89923        1.52100       -0.05708
N         -1.55185        1.86664       -0.05214
C         -0.68700        0.77693       -0.02070
N          0.33368        1.71985       -0.01960
C          1.63293        1.21207       -0.00782
N          2.87808        1.80296        0.02749
C          3.86276        0.82721        0.04188
N          4.96789        0.82065        0.07657
H          5.61090        0.11981       -0.30001
H          5.57498        1.52393        0.50460
N          3.19099       -0.38525        0.01208
C          1.80907       -0.20915       -0.02674
C          0.72149       -1.07789       -0.06398
C          1.07698       -2.13261       -0.13920
N          1.14596       -2.72077       -1.11846
C         -0.54217       -0.59087       -0.01348
N         -3.69563        2.28812       -0.10267
H         -3.66110        3.27613       -0.36397
H         -4.69329        2.10001        0.02739
H         -4.01108       -0.87915        0.05574
