24
Coordinates from ORCA-job ./opt_b97-3c_parallel
N         -1.54540       -3.56238        0.07116
C         -1.89012       -2.47394        0.01704
C         -1.65323       -1.39169        0.00205
C         -2.96120       -0.98466       -0.01724
N         -3.73255        0.16685       -0.01966
C         -2.97117        1.32105       -0.01150
N         -3.58948        2.23397        0.00205
H         -3.37247        3.22474        0.11284
H         -4.60767        2.17073        0.03164
N         -1.59812        1.47742       -0.01687
C         -0.41147        0.85025       -0.01936
N          0.76370        1.53156       -0.03250
C          1.91537        0.81949       -0.02035
N          3.16373        1.29031       -0.03538
C          3.90802        0.16457       -0.00903
N          4.97917        0.44611       -0.03515
H          5.44956        1.22576       -0.49832
H          5.73081       -0.12402        0.35695
C          3.30887       -1.07477        0.03180
C          1.92161       -0.55770        0.01085
N          0.76571       -1.25818        0.01945
C         -0.40132       -0.56072        0.00005
H          3.89204       -1.99293        0.06333
H         -4.04724       -1.17942       -0.03793
