23
Coordinates from ORCA-job ./opt_b97-3c_parallel
N         -4.64937       -2.18874        0.06011
C         -4.06284       -1.21057        0.03184
C         -3.27305       -0.02323        0.00072
C         -1.85599       -0.06735       -0.00244
C         -1.40577        1.26629       -0.02367
N         -2.59542        1.97837       -0.03449
C         -3.72418        1.26768       -0.02171
H         -4.77254        1.60900       -0.02772
N         -0.11738        1.41687       -0.02547
C          0.79908        0.48037       -0.00957
C          2.13768        0.93650       -0.01172
C          2.38716        2.35154       -0.02338
N          2.53811        3.48185       -0.03096
C          3.36468        0.16203       -0.00229
N          3.51790       -1.21127        0.00968
C          2.37781       -1.95613        0.01958
N          2.92662       -2.91838        0.02876
H          3.80189       -3.12062        0.52092
H          2.73016       -3.77943       -0.48758
N          1.01310       -2.06541        0.02373
C          0.31265       -0.91363        0.00977
N         -1.02176       -1.18643        0.01468
H          4.41366        0.50104       -0.00324
