26
Coordinates from ORCA-job ./opt_b97-3c_parallel
N          6.63090       -0.00512        0.09650
C          5.48972        0.02309        0.04811
C          4.06602        0.10226       -0.00980
C          3.46469       -1.10286        0.23963
N          2.21298       -1.57090        0.25100
C          1.10013       -0.77551        0.04806
C         -0.13708       -1.51950        0.08447
C         -1.35073       -0.93449       -0.12749
C         -1.32245        0.42814       -0.07711
C         -2.57736        1.10160        0.05921
C         -2.81027        2.50919        0.19683
N         -2.96025        3.63306        0.33333
C         -3.54892        0.06138        0.03414
N         -4.65038        0.14858        0.09121
H         -5.26232       -0.66132       -0.00938
H         -5.26136        0.95125        0.24389
C         -2.71089       -1.09400       -0.11252
C         -3.20356       -2.42858       -0.25790
N         -3.56159       -3.50509       -0.39433
N         -0.23264        1.21064       -0.14638
C          1.00230        0.66738       -0.14772
N          2.03736        1.57453       -0.31276
C          3.39847        1.33026       -0.30762
H          4.04584        2.20180       -0.49255
H         -0.07642       -2.59210        0.25049
H          3.92017       -2.07785        0.47674
