32
Coordinates from ORCA-job ./opt_b97-3c_parallel
N         -5.88143       -0.07881       -0.03072
C         -4.73873       -0.05528        0.00742
C         -3.28146       -0.02392        0.03640
C         -2.67306        1.23902        0.05225
N         -3.47980        2.35427        0.06699
H         -4.47763        2.24342       -0.08258
H         -3.06815        3.26810       -0.08767
C         -1.31378        1.54832        0.05590
C         -0.14913        0.75527        0.03790
C         -0.11264       -0.67135        0.03949
C         -1.24553       -1.51111        0.05347
C         -2.61746       -1.25899        0.04739
N         -3.37643       -2.40747        0.05620
H         -2.92649       -3.30284       -0.09961
H         -4.37852       -2.33871       -0.09042
H         -1.05709       -2.57923        0.06717
C          1.15592       -1.33217        0.02755
C          1.32851       -2.77315        0.02383
N          1.44847       -3.90994        0.01936
C          2.33296       -0.58996        0.01284
C          2.26890        0.75549        0.00942
C          3.61884        1.16799       -0.00999
C          4.28435       -0.11243       -0.01439
N          5.64521       -0.18967       -0.03365
H          6.10676       -1.09265       -0.01944
H          6.21245        0.65054       -0.02791
N          3.61772       -1.01998       -0.00273
H          4.06320        2.15824       -0.02060
C          1.08415        1.46808        0.02075
C          1.21721        2.91059        0.00587
N          1.32449        4.04811       -0.01824
H         -1.16637        2.62292        0.07260
