27
Coordinates from ORCA-job ./opt_b97-3c_parallel
N         -5.90830       -1.42975       -0.00815
C         -4.87021       -0.95397       -0.00118
C         -3.55005       -0.39858        0.00135
C         -2.66014       -1.44353       -0.00031
N         -1.33095       -1.60014       -0.00096
C         -0.44454       -0.53931       -0.00082
N          0.76892       -1.01455       -0.00154
C          1.86548       -0.31757        0.00041
C          1.77954        1.10514        0.00120
N          2.96192        1.73708        0.00443
C          3.90162        0.71465        0.00560
N          4.91295        1.17134        0.00827
H          5.72250        0.54518        0.01157
H          5.31420        2.11220        0.00803
C          3.21649       -0.55330        0.00296
C          3.91969       -1.79415        0.00400
N          4.51288       -2.76932        0.00552
C          0.47831        1.73302        0.00019
C         -0.70146        0.88667        0.00077
C         -1.94905        1.60432        0.00368
C         -3.26600        1.01323        0.00424
N         -4.02235        1.81932        0.00604
H         -4.97981        1.46441        0.00536
H         -4.10868        2.83584        0.00958
H         -1.87452        2.69310        0.00498
H          0.49537        2.82229       -0.00293
H         -2.85096       -2.52913       -0.00212
