29
Coordinates from ORCA-job ./opt_b97-3c_parallel
N         -6.65643        0.00152        0.02645
C         -5.51380        0.00171        0.00924
C         -4.07475       -0.00003        0.00189
C         -3.44778       -1.29314        0.11836
N         -2.34507       -1.37958        0.08816
C         -1.16923       -0.70525        0.02994
C         -1.16912        0.70355       -0.02998
N         -2.34501        1.37814       -0.08645
C         -3.44795        1.29320       -0.11509
H         -3.73775        2.12713       -0.74373
C          0.05166        1.39945       -0.03393
C          0.05083        2.84688       -0.07245
N          0.04769        3.98953       -0.08979
C          1.26258        0.69260       -0.00443
C          1.26236       -0.69372       -0.00010
C          2.55364       -1.33357       -0.02989
C          3.16111       -2.53931       -0.51247
N          3.83010       -3.45022       -0.34337
C          3.11475       -0.00065        0.00178
N          4.48648       -0.00342        0.03820
H          4.99647       -0.87803       -0.03569
H          4.99767        0.87357        0.01193
C          2.55376        1.33234        0.02297
C          3.16105        2.54525        0.49028
N          3.84466        3.44573        0.33157
C          0.05154       -1.40086        0.03147
C          0.05158       -2.84827        0.06968
N          0.04832       -3.99102        0.08599
H         -3.73806       -2.12743        0.74647
