25
Coordinates from ORCA-job ./opt_b97-3c_parallel
N          3.94319        2.94504        0.54848
C          3.47358        1.94844        0.24653
C          2.83788        0.72460       -0.12708
C          1.46037        0.59413        0.21638
C          1.49646       -0.80988        0.08314
N          2.70588       -1.43717       -0.14301
C          3.56121       -0.42799       -0.23209
H          4.62498       -0.64344       -0.41523
C          0.22913       -1.50630        0.06093
C          0.24482       -2.93952       -0.02657
N          0.21233       -4.07929       -0.09816
C         -0.92912       -0.70968        0.09273
C         -2.20191       -1.42562        0.16045
C         -3.52473       -0.82103        0.14830
N         -3.88128        0.47774        0.05335
C         -2.86997        1.40320        0.03018
N         -3.52260        2.28816       -0.07203
H         -4.52231        2.41995        0.07980
H         -3.17470        3.17463       -0.43580
N         -1.63580        1.76506        0.06114
C         -0.92598        0.68413        0.05027
C          0.35217        1.36539       -0.06244
H          0.55415        2.40356       -0.33889
H         -4.33667       -1.56323        0.19229
H         -2.21005       -2.50837        0.22045
