24
Coordinates from ORCA-job ./opt_b97-3c_parallel
N         -0.89210       -3.89475        0.07458
C         -0.96850       -2.75522        0.04184
C         -1.11196       -1.33056       -0.00010
C         -2.47603       -1.08062        0.03773
N         -3.25691        0.01653        0.06180
C         -2.57565        1.20506       -0.02121
N         -3.33156        2.00460        0.04461
H         -4.33114        1.89666        0.21282
H         -3.13785        3.00279        0.11615
N         -1.37671        1.64880       -0.15458
C         -0.23064        1.05760       -0.11093
C          0.89531        1.86863       -0.13903
C          2.14420        1.15070       -0.07155
C          2.07991       -0.27638        0.00383
N          1.05908       -0.72646       -0.01473
C         -0.00547       -0.38457       -0.03648
C          3.38098       -0.66747        0.08546
C          4.14682        0.42549        0.05594
C          3.43789        1.54666       -0.04232
H          3.81902        2.56490       -0.08471
H          5.23294        0.40131        0.10769
H          3.73604       -1.69263        0.16556
H          0.86442        2.95299       -0.19467
H         -3.37037       -1.72172        0.08636
