22
Coordinates from ORCA-job ./opt_b97-3c_parallel
N          3.75217        2.76002        0.11028
C          3.41172        1.67138        0.05266
C          2.92977        0.32874       -0.00811
C          1.54827        0.02412       -0.00688
C          1.43309       -1.38432       -0.04325
N          2.75300       -1.79437       -0.07217
C          3.66448       -0.82188       -0.05545
H          4.75049       -1.00296       -0.08182
C          0.19017       -1.95853       -0.03575
C         -0.88986       -1.17225       -0.00226
N         -2.16101       -1.51710        0.01571
C         -3.45720       -1.16993        0.03670
N         -3.86644        0.16052        0.03030
C         -2.85365        1.11015        0.02211
N         -3.51203        1.99850        0.01058
H         -3.33292        2.88859       -0.45629
H         -4.46731        2.07065        0.36503
N         -1.48843        1.35844        0.02158
C         -0.73082        0.19538        0.01634
N          0.46943        0.89554        0.02352
H         -4.20574       -1.97989        0.04997
H          0.08966       -3.04228       -0.05202
