26
Coordinates from ORCA-job ./opt_b97-3c_parallel
N          5.81001       -0.20137       -0.00021
C          4.66780       -0.15330       -0.00362
C          3.22517       -0.07492       -0.00424
C          2.62920       -1.37686        0.00722
N          1.56726       -1.63998        0.00397
C          0.34059       -1.10264        0.00054
C         -0.75269       -1.97769       -0.00059
C         -2.01981       -1.41947       -0.00215
C         -2.19552       -0.06317       -0.00219
N         -1.15937        0.79691       -0.00268
C          0.10757        0.29600       -0.00222
C          1.11976        1.27185       -0.00758
C          2.51700        1.13582       -0.01215
N          3.22657        2.30906       -0.02875
H          2.74062        3.19778        0.02313
H          4.23971        2.29090        0.02401
H          0.76060        2.30089       -0.01148
C         -3.58021        0.36353       -0.00345
C         -4.26759        1.61525        0.00028
N         -4.62505        2.70091        0.00151
C         -4.17395       -0.96895       -0.00436
C         -3.25295       -2.00651       -0.00368
H         -3.47057       -3.07180       -0.00435
H         -5.23961       -1.18428       -0.00540
H         -0.61580       -3.05673        0.00007
H          3.11196       -2.34713       -0.00105
