26
Coordinates from ORCA-job ./opt_b97-3c_parallel
N         -6.29619       -0.74629        0.00178
C         -5.16106       -0.61500        0.00171
C         -3.72976       -0.46397        0.00250
C         -2.95431       -1.67975        0.00140
N         -1.84767       -1.68431        0.00114
C         -0.76887       -0.87014        0.00086
C          0.50224       -1.44963        0.00049
C          1.60744       -0.61318        0.00055
C          1.51591        0.74411        0.00038
N          2.73630        1.32731        0.00013
C          3.45676        0.46144        0.00025
N          4.79226        0.74401        0.00039
H          5.47678       -0.00482        0.00048
H          5.11630        1.70466       -0.00012
C          2.98739       -0.90804        0.00039
C          3.64763       -2.17553        0.00062
N          4.33892       -3.08563        0.00324
C          0.25636        1.35114        0.00027
C          0.16140        2.79455       -0.00103
N          0.07518        3.93476       -0.00512
C         -0.89997        0.54116        0.00088
N         -2.13331        1.10360        0.00134
C         -3.21821        0.88431        0.00184
H         -3.76882        1.81711        0.00380
H          0.62428       -2.53072        0.00015
H         -3.30456       -2.70532       -0.00317
