29
Coordinates from ORCA-job ./opt_b97-3c_parallel
N          6.22529       -0.27358        0.70924
C          5.11104       -0.20503        0.46350
C          3.71045       -0.10328        0.14464
C          3.07084       -1.39466        0.07051
N          1.97723       -1.56000        0.02506
C          0.77535       -0.93175        0.00519
C          0.71054        0.48446        0.04516
N          1.84609        1.22494        0.04916
C          2.94450        1.11272        0.01667
N          3.37290        2.20142       -0.68581
H          4.36221        2.31510       -0.87873
H          2.77716        3.01864       -0.75937
C         -0.54158        1.12386        0.06690
C         -0.65562        2.56351        0.12145
N         -0.75860        3.70079        0.16752
C         -1.68468        0.33156        0.02658
C         -1.64395       -1.02905       -0.03820
N         -2.87869       -1.57658       -0.08696
C         -3.56187       -0.68553       -0.05483
N         -4.89632       -0.97271       -0.09223
H         -5.58280       -0.22648       -0.12123
H         -5.20913       -1.92850       -0.22354
C         -3.06038        0.67157        0.02255
C         -3.85750        1.85951        0.07257
N         -4.40760        2.61782        0.72671
C         -0.41342       -1.68766       -0.04686
C         -0.38127       -3.13271       -0.11131
N         -0.35006       -4.27372       -0.17416
H          3.27225       -2.28354        0.65702
