28
Coordinates from ORCA-job ./opt_b97-3c_parallel
N          6.14868        0.11856       -0.38855
C          5.01144        0.11248       -0.28183
C          3.58825        0.14822       -0.16503
C          3.02385       -1.09517       -0.29439
N          1.78919       -1.60582       -0.22950
C          0.64734       -0.83020       -0.08284
C          0.55199        0.60939        0.00614
N          1.54948        1.50382        0.12508
C          2.88403        1.36690        0.09996
N          2.97508        2.44973        0.28748
H          3.96880        2.25598        0.41849
H          2.79653        3.33123        0.76754
N         -0.57613        1.23603        0.08107
C         -1.72463        0.63943        0.07151
C         -1.83645       -0.79085        0.05070
C         -3.09331       -1.34202        0.07892
C         -3.76384       -0.14875        0.05000
N         -4.85540       -0.31532        0.01532
H         -5.45209        0.45073       -0.29633
H         -5.47951       -1.09578        0.21952
C         -3.01995        1.07130        0.05110
C         -3.45668        2.43488        0.01094
N         -3.36744        3.04860       -0.94807
H         -3.34113       -2.11749        0.80495
C         -0.61096       -1.56456       -0.03610
C         -0.66363       -2.99749       -0.06719
N         -0.71315       -4.13854       -0.05365
H          3.49255       -2.07692       -0.46867
