29
Coordinates from ORCA-job ./opt_b97-3c_parallel
N         -5.86353       -0.86413        0.52251
C         -4.75068       -0.65235        0.36880
C         -3.34365       -0.37050        0.18475
C         -2.68835       -1.63955        0.13476
N         -1.60551       -1.60844        0.04747
C         -0.40400       -1.03272       -0.04621
C          0.71980       -1.88632       -0.09162
C          0.58287       -3.32882       -0.11581
N          0.46491       -4.46549       -0.14500
C          1.99403       -1.33654       -0.09805
N          3.18621       -1.97242       -0.11317
C          3.94723       -1.14644       -0.04086
C          3.52400        0.23304        0.05655
C          4.63533        1.12426        0.17030
N          4.96480        1.63967        1.13646
C          2.12762        0.00743       -0.01353
C          1.05564        0.89502        0.02288
C          1.41880        2.25929        0.34428
N          1.72492        3.32589        0.61759
C         -0.27697        0.38302       -0.08445
C         -1.42478        1.23538       -0.25203
C         -1.21949        2.57432       -0.78308
N         -1.08463        3.62074       -1.22428
C         -2.80590        0.90066       -0.09197
N         -3.74898        1.90346       -0.19179
H         -3.46925        2.80356       -0.56844
H         -4.72933        1.64800       -0.25111
H          4.94658       -1.56720       -0.03816
H         -2.79255       -2.48422        0.80682
