27
Coordinates from ORCA-job ./opt_b97-3c_parallel
N          5.07434        1.84312        0.13736
C          4.03275        1.37676        0.07700
C          2.72309        0.76599       -0.00130
C          1.74836        1.80296       -0.13523
N          0.68373        1.58380       -0.08174
C         -0.32074        0.70227       -0.04751
C         -1.63954        1.20289        0.01410
C         -1.94206        2.61541        0.06632
N         -2.20085        3.72868        0.10722
C         -2.68158        0.29147        0.02210
C         -2.49370       -1.04328       -0.04659
N         -3.65953       -1.72412       -0.03413
C         -4.48182       -0.95352        0.04038
C         -4.08209        0.43484        0.08432
H         -4.71001        1.31461        0.18314
H         -5.47305       -1.38957        0.08230
C         -1.20569       -1.55280       -0.10779
C         -0.07290       -0.69678       -0.08739
C          1.23512       -1.28027       -0.08463
C          1.31245       -2.73285       -0.12850
N          1.38722       -3.87355       -0.15786
C          2.49840       -0.62232       -0.00678
N          3.64038       -1.39337        0.07426
H          4.52461       -0.94619        0.29274
H          3.55166       -2.39040        0.24102
H         -1.13055       -2.63494       -0.15504
H          1.89275        2.85818       -0.33820
