29
Coordinates from ORCA-job ./opt_b97-3c_parallel
N         -4.10148       -2.49314       -0.63620
C         -3.61264       -1.49329       -0.37722
C         -2.95769       -0.26346       -0.05414
C         -3.48848        0.99713        0.07283
N         -4.79216        1.30190        0.16170
H         -5.50112        0.65415       -0.17867
H         -5.11935        2.25299        0.00258
C         -2.50523        1.90333        0.13610
C         -1.23049        1.15290        0.06949
C         -1.53254       -0.17105       -0.03990
C         -0.54923       -1.15189       -0.02676
C          0.79615       -0.76822        0.10138
C          1.74571       -1.86156        0.26923
C          1.68222       -3.27227        0.51336
N          1.18684       -4.23648        0.15930
C          3.12524       -1.84997        0.08803
N          3.97018       -0.77327       -0.17037
C          3.46966        0.50376       -0.09383
N          2.34581        0.99295        0.29529
C          1.10617        0.60972        0.17510
C          0.08804        1.58617        0.15495
C          0.37159        2.99868        0.26721
N          0.62350        4.10921        0.35457
N          4.27718        1.21592       -0.33329
H          4.18870        2.20887       -0.54848
H          5.26794        0.99523       -0.42439
H          4.06207       -2.43046        0.07133
H         -0.83483       -2.20117       -0.07229
H         -2.72200        2.96343        0.25145
