26
Coordinates from ORCA-job ./opt_b97-3c_parallel
N         -4.42121       -2.09128        0.47466
C         -3.95127       -1.07273        0.25532
C         -3.32707        0.19008        0.02154
C         -1.92751        0.33321       -0.05876
C         -1.74547        1.69403       -0.16296
N         -2.92872        2.40437       -0.17060
C         -3.86219        1.44878       -0.07247
H         -4.95417        1.58881       -0.05085
C         -0.42296        2.19743       -0.16630
C          0.62849        1.29192       -0.08983
N          1.83498        1.88522       -0.03340
C          2.94154        1.10158        0.01069
N          3.60675       -0.08475        0.00804
C          2.79870       -1.19952       -0.06051
N          3.67814       -1.88059       -0.07663
H          3.20286       -2.78745       -0.04154
H          4.65709       -2.11743       -0.25565
C          1.34306       -1.23311       -0.04646
C          0.85084       -2.58806       -0.05220
N          0.52196       -3.68020       -0.06010
C          0.38191       -0.18754       -0.04479
N         -0.91992       -0.59897        0.00063
N          3.66425        1.93466        0.10260
H          3.49307        2.93581       -0.01349
H          4.59580        1.87905        0.51718
H         -0.28241        3.27439       -0.20618
