27
Coordinates from ORCA-job ./opt_b97-3c_parallel
N          5.69225        1.54810        0.15007
C          4.65124        1.07488        0.16015
C          3.34781        0.46337        0.16607
C          2.34194        1.49539        0.09423
N          1.25132        1.31388        0.05328
C          0.30563        0.34245        0.06137
C          0.69456       -1.01921        0.14600
N          1.99465       -1.39063        0.16698
C          3.00130       -0.93695        0.12185
N          3.80961       -1.89499       -0.41823
H          3.49919       -2.85875       -0.46404
H          4.78455       -1.68947       -0.60868
C         -0.27598       -2.02306        0.19308
C         -1.61204       -1.66413        0.12561
C         -2.72568       -2.48673        0.13388
C         -3.83852       -1.66533        0.01694
C         -3.40604       -0.34553       -0.05858
C         -4.29587        0.77682       -0.21873
N         -5.01363        1.65524       -0.35608
C         -2.01059       -0.34834        0.01442
C         -1.06307        0.68358       -0.01098
C         -1.46502        2.06999       -0.10315
N         -1.76732        3.17037       -0.17192
H         -4.87293       -1.99934       -0.01949
H         -2.72939       -3.57174        0.20694
H          0.01035       -3.07028        0.26479
H          2.35051        2.48330        0.53975
