24
Coordinates from ORCA-job ./opt_b97-3c_parallel
N         -5.98746       -0.95205       -0.15713
C         -4.86269       -0.76628       -0.07666
C         -3.44356       -0.54774        0.02218
C         -2.98982        0.82052       -0.00076
N         -1.91287        1.07198        0.02184
C         -0.66062        0.55412        0.03707
C         -0.47776       -0.85147        0.03017
N         -1.52683       -1.70368        0.04506
C         -2.63260       -1.73896        0.06605
H         -2.84033       -2.67706        0.56680
C          0.81409       -1.38394        0.01300
C          1.88523       -0.50698        0.01087
C          3.27407       -0.74977       -0.00694
C          4.19787       -1.83789       -0.04964
N          4.52951       -2.89650       -0.32273
C          3.69826        0.63313        0.01445
N          2.94363        1.47050        0.03816
C          1.74509        0.84509        0.03529
C          0.46535        1.40578        0.05157
C          0.31811        2.84439        0.08381
N          0.20055        3.98120        0.12447
H          4.70022        1.04614        0.00704
H          0.97816       -2.45966        0.00295
H         -3.39827        1.65658       -0.55627
