25
Coordinates from ORCA-job ./opt_b97-3c_parallel
N          5.68377        1.18855        0.02994
C          4.58284        0.88679        0.00388
C          3.19734        0.54147       -0.00328
C          2.42818        1.67303       -0.03057
N          1.12557        1.95979       -0.02422
C          0.14373        0.98915       -0.01113
N         -0.96473        1.66586        0.00145
C         -2.04023        0.95245       -0.01874
C         -2.15032       -0.46671       -0.05758
N         -0.99645       -1.16848       -0.05213
C          0.21825       -0.46315       -0.02589
C          1.40782       -1.30067       -0.00524
C          1.28075       -2.72882        0.00176
N          1.20953       -3.86942        0.02098
C          2.76514       -0.82148        0.02129
H          3.55241       -1.57227        0.04682
C         -3.46414       -0.82746       -0.07354
C         -4.23595        0.25744       -0.02950
N         -5.57674        0.23458       -0.04497
H         -6.08454       -0.63626        0.10780
H         -6.11879        0.99243        0.36828
C         -3.40891        1.34157        0.00925
H         -3.74255        2.37385        0.05731
H         -3.82597       -1.85277       -0.12550
H          2.73906        2.72997       -0.05162
