24
Coordinates from ORCA-job ./opt_b97-3c_parallel
N         -5.65167       -1.15007       -0.25810
C         -4.52760       -0.97802       -0.15048
C         -3.11726       -0.80977       -0.01091
C         -2.20633       -1.88081       -0.33195
N         -0.86583       -1.79688       -0.18114
C         -0.12453       -0.69694        0.05378
N          1.11873       -1.08042        0.10493
C          2.13994       -0.28177        0.02767
C          1.92304        1.11890       -0.14569
N          3.03218        1.85719       -0.18602
C          4.05020        0.92594       -0.05683
C          3.50263       -0.39363        0.07523
C          4.32371       -1.54829        0.23729
N          4.94740       -2.49673        0.37079
H          5.11233        1.21650       -0.05276
C          0.57576        1.62527       -0.18792
C         -0.47028        0.70540       -0.07377
C         -1.83207        1.14908       -0.01651
C         -2.39879        2.44357       -0.23220
N         -2.81497        3.49497       -0.38999
C         -2.80803        0.39364        0.55084
H         -3.22627        0.66981        1.51904
H          0.38446        2.69399       -0.26672
H         -2.60927       -2.85309       -0.65660
