25
Coordinates from ORCA-job ./opt_b97-3c_parallel
N         -4.13300       -2.62760       -0.00448
C         -3.65276       -1.59037       -0.01242
C         -2.92859       -0.35985       -0.00350
C         -1.56005       -0.03128       -0.00846
C         -1.50830        1.32060        0.00900
N         -2.72891        1.89517        0.02392
C         -3.42077        1.00170        0.01715
H         -4.44344        1.35902        0.02956
C         -0.25844        1.92148        0.01018
C          0.89593        1.11457       -0.00537
C          2.09422        1.83375       -0.00095
C          3.40554        1.37912       -0.00938
C          3.87651        0.07578       -0.02411
C          3.14348       -1.10352       -0.03699
N          3.86957       -2.26246       -0.04949
H          3.38656       -3.13997        0.11027
H          4.86241       -2.22084        0.15091
C          1.75876       -1.25005       -0.03882
C          0.73716       -0.29716       -0.02322
N         -0.50362       -0.85775       -0.02469
H          1.41716       -2.28519       -0.05279
H          4.96064       -0.02425       -0.02737
H          4.17106        2.15209       -0.00302
H          2.00837        2.91854        0.01192
H         -0.19082        3.00756        0.02417
