27
Coordinates from ORCA-job ./opt_b97-3c_parallel
N          5.26577        0.55388        1.01786
C          4.33176        0.02019        0.63263
C          3.15656       -0.66655        0.19008
C          3.20465       -2.08256        0.01307
N          2.13133       -1.95777       -0.22883
C          1.10689       -1.55031       -0.33975
C          1.78372       -0.32707       -0.05793
C          1.17119        0.92521       -0.10245
C          2.00025        2.10784        0.03306
N          2.65422        3.04035        0.12702
C         -0.23161        1.01562       -0.25827
N         -0.69088        2.28892       -0.39597
C         -2.00032        2.44565       -0.58232
N         -3.19470        1.94892       -0.62756
C         -3.34070        0.88970        0.10803
N         -4.04548        1.40261        0.80963
H         -4.72737        2.10148        1.09645
H         -4.26393        0.54723        1.31733
C         -2.53613       -0.18605       -0.21662
C         -3.28703       -1.01405       -0.25721
N         -3.91588       -1.91324        0.06927
C         -1.01779       -0.17830       -0.30194
C         -0.32019       -1.40484       -0.39581
C         -0.84711       -2.72278       -0.66723
N         -1.24990       -3.76564       -0.90383
H         -2.11803        3.53551       -0.67821
H          4.00388       -2.83025        0.12593
