25
Coordinates from ORCA-job ./opt_b97-3c_parallel
N         -6.10524       -0.19974       -0.00055
C         -4.96334       -0.15999       -0.00026
C         -3.53866       -0.06558        0.00001
C         -2.98144        1.19643       -0.00491
N         -1.71525        1.66591       -0.00675
C         -0.59742        0.82517       -0.00337
C          0.73454        1.39029       -0.00551
C          0.92776        2.82212        0.00090
N          1.10114        3.95109        0.00609
C          1.94279        0.60373       -0.00011
N          3.19725        1.04798       -0.00044
C          3.91428       -0.14002        0.00629
N          5.01269       -0.02866        0.00708
H          5.64742       -0.82716        0.00607
H          5.60390        0.80266        0.00925
N          3.17646       -1.21747        0.01063
C          1.94340       -0.80850        0.00621
C          0.58826       -1.32730        0.00511
C          0.80666       -2.76087       -0.00146
N          1.00202       -3.88572       -0.00635
C         -0.68906       -0.62631        0.00286
N         -1.58498       -1.27109        0.00633
C         -2.68430       -1.21344        0.00515
H         -3.25009       -2.15812        0.00850
H         -3.50869        2.16271       -0.00897
