26
Coordinates from ORCA-job ./opt_b97-3c_parallel
N          5.04742        1.64008       -0.90425
C          4.01854        1.19617       -0.67795
C          2.73866        0.63749       -0.34828
C          1.86771        1.71255       -0.39567
N          0.59310        1.94878       -0.03602
C         -0.19918        0.86286        0.27601
C         -1.57248        1.04698        0.68812
C         -2.15163        2.35393        0.90233
N         -2.60511        3.39118        1.05558
C         -2.64331        0.12786        0.37032
C         -2.23357       -0.91565       -0.49217
N         -3.26875       -1.69768       -0.88682
C         -4.21319       -1.03446       -0.18825
N         -3.91989        0.00351        0.55735
H         -5.29843       -1.15629       -0.05509
C         -0.94753       -1.18531       -0.91134
C          0.08653       -0.45057       -0.21944
C          1.15311       -1.19432        0.39311
C          0.86412       -2.49184        0.93986
N          0.63887       -3.53915        1.33812
C          2.49732       -0.70815        0.15476
N          3.37735       -1.35313        0.35358
H          4.33735       -1.01635        0.40679
H          3.40917       -2.36227        0.48923
H         -0.72920       -2.01155       -1.58142
H          1.85269        2.78988       -0.62150
