29
Coordinates from ORCA-job ./opt_b97-3c_parallel
N          6.06147        1.14492        0.06755
C          4.98924        0.74915        0.04563
C          3.63924        0.23471        0.01822
C          2.68958        1.30489        0.06900
N          1.60329        1.18694        0.05137
C          0.56957        0.33310        0.00093
C          0.77221       -1.06315       -0.05928
N         -0.28391       -1.91316       -0.10911
C         -1.53629       -1.41668       -0.10028
C         -2.64578       -2.31784       -0.14541
C         -3.44282       -1.11891       -0.03169
N         -4.70716       -1.63459        0.07271
H         -4.85973       -2.61658       -0.13009
H         -5.49815       -1.00227        0.00554
C         -3.20235        0.30783       -0.02908
C         -4.15899        1.36442       -0.15003
N         -5.13098        1.94792       -0.00534
C         -1.81360       -0.06763       -0.03998
C         -0.74672        0.83335        0.01008
C         -1.00235        2.25647        0.06992
N         -1.21558        3.37880        0.10933
H         -2.73130       -3.21339        0.46402
C          2.03463       -1.68550       -0.07418
C          3.32691       -1.13211       -0.04334
N          4.36017       -2.03287       -0.08165
H          4.16311       -3.01952        0.04500
H          5.30557       -1.70397        0.08608
H          2.00525       -2.77365       -0.12114
H          2.85903        2.37287       -0.00808
