29
Coordinates from ORCA-job ./opt_b97-3c_parallel
N         -5.61406       -0.77890       -0.46041
C         -4.49609       -0.58869       -0.32362
C         -3.08840       -0.39297       -0.12664
C         -2.22621       -1.54331       -0.33957
N         -0.92156       -1.62478       -0.01713
C         -0.13685       -0.57201        0.22287
N          1.02815       -1.08909        0.47964
C          2.02323       -0.30493        0.18947
C          2.02063        0.96160       -0.34428
C          3.30264        1.39756       -0.49727
C          4.13411        0.45272       -0.08018
C          3.41169       -0.61920        0.34483
C          3.86948       -1.87985        0.83818
N          4.19451       -2.90370        1.22607
H          5.21978        0.52643       -0.06943
H          3.59891        2.37251       -0.87920
C          0.74675        1.57102       -0.65498
C          0.62727        2.86443       -1.25517
N          0.68326        3.76390       -0.55298
C         -0.39346        0.74787       -0.28135
C         -1.37410        1.34509        0.57707
C         -2.72564        0.83078        0.44647
N         -3.31694        1.67485        0.85426
H         -4.28201        1.42438        1.07219
H         -3.29797        2.69399        0.81023
H         -1.15116        2.28842        1.08336
N         -2.16290       -2.60867       -0.62210
H         -3.17687       -2.66967       -0.53083
H         -1.84383       -3.54370       -0.87334
