27
Coordinates from ORCA-job ./opt_b97-3c_parallel
N         -2.52988       -3.74766        0.25645
C         -2.44811       -2.61018        0.20582
C         -2.29969       -1.18684        0.13886
C         -3.58484       -0.50193        0.10224
N         -3.92888        0.83963       -0.03583
C         -2.96895        1.81488       -0.01639
N         -3.55331        2.73819       -0.16530
H         -3.23140        3.67506       -0.40787
H         -4.56946        2.80756       -0.09732
N         -1.70956        1.71924        0.20607
C         -0.78392        0.83452        0.11096
C          0.57044        1.36131        0.06169
C          1.61920        0.47302       -0.01936
C          1.38935       -0.90730       -0.04393
N          2.56822       -1.61896       -0.12454
C          3.53974       -0.67634       -0.14929
N          4.50179       -1.21954       -0.21036
H          4.95082       -2.11581       -0.40414
H          5.25832       -0.58266        0.04802
C          2.97235        0.65567       -0.08341
C          3.70461        1.88492       -0.08636
N          4.52951        1.97290        0.69976
C          0.12075       -1.42515        0.00840
C         -0.96798       -0.55162        0.08049
H          0.02024       -2.50574       -0.01921
H          0.74393        2.43410        0.09252
H         -4.59261       -0.94683        0.10840
