23
Coordinates from ORCA-job ./opt_b97-3c_parallel
N          5.90103        0.35294       -0.07843
C          4.77218        0.18304       -0.04344
C          3.35535        0.01528       -0.00950
C          2.74721       -1.28545        0.10794
N          1.38852       -1.61757        0.12544
C          0.27313       -0.78354        0.05790
C         -0.93174       -1.45010        0.08950
C         -2.15739       -0.70015        0.04490
C         -3.40898       -1.23795        0.07299
C         -4.10285       -0.05103        0.04966
N         -5.19578        0.13106        0.09675
H         -5.72592        0.95844        0.38090
H         -5.90863       -0.58182       -0.07683
N         -3.34811        1.11553       -0.01712
C         -2.07203        0.72181       -0.02253
N         -0.89489        1.38234       -0.06782
C          0.28994        0.65588       -0.03351
N          1.34013        1.40141       -0.08186
C          2.59830        1.15055       -0.09311
H          3.07196        2.14089       -0.18859
H         -3.67641       -2.05936       -0.59115
H         -0.97320       -2.53541        0.15134
H          3.41261       -2.16081        0.17926
