29
Coordinates from ORCA-job ./opt_b97-3c_parallel
N         -5.35624        0.16661       -0.53384
C         -4.22858        0.11487       -0.34843
C         -2.80005        0.03624       -0.12402
C         -2.13911        1.30710       -0.01880
N         -1.06828        1.51104       -0.05655
C          0.14105        0.93863       -0.02571
C          1.23676        1.80644       -0.10710
C          2.51353        1.27814       -0.07490
C          2.71999       -0.07129        0.05651
C          4.09134       -0.29904        0.05305
C          4.71749        0.93545       -0.08674
C          3.73809        1.91951       -0.16360
H          3.90358        2.98782       -0.28007
H          5.79098        1.10141       -0.13384
H          4.59019       -1.26231        0.13329
C          1.65668       -0.96705        0.15185
C          1.97856       -2.37130        0.28786
N          2.23979       -3.47810        0.40596
C          0.32750       -0.46486        0.08865
C         -0.74494       -1.39198        0.10703
C         -2.13142       -1.19579       -0.02516
N         -2.87803       -2.34635       -0.08257
H         -3.84663       -2.27866       -0.37767
H         -2.39933       -3.22798       -0.23008
H         -0.48245       -2.44204        0.19156
H          1.09118        2.88069       -0.20079
N         -2.70967        2.46092        0.44469
H         -3.72098        2.52905        0.48731
H         -2.18117        3.32512        0.41151
