23
Coordinates from ORCA-job ./opt_b97-3c_parallel
N         -1.10984       -3.70052       -0.09178
C         -1.31350       -2.57568       -0.03832
C         -1.20120       -1.47498        0.00816
C         -2.53898       -1.18572        0.00840
N         -3.44247       -0.13744        0.00036
C         -2.81074        1.09017        0.02188
N         -3.44483        1.99014       -0.00396
H         -4.44935        1.89474       -0.14975
H         -3.21869        2.96297       -0.20780
N         -1.48302        1.45831        0.07028
C         -0.26533        0.89789        0.09475
C          0.86358        1.79492        0.16173
C          2.14805        1.15314        0.04567
C          2.23759       -0.21996       -0.02293
N          3.52243       -0.58604       -0.11784
C          4.29501        0.49650       -0.11689
C          3.54149        1.58772       -0.01860
H          3.99477        2.57572        0.00097
H          5.37035        0.27518       -0.19491
N          1.16373       -1.03701       -0.00842
C         -0.07306       -0.49028        0.04259
H          0.76578        2.85586        0.36981
H         -3.59450       -1.50410        0.00079
