25
Coordinates from ORCA-job ./opt_b97-3c_parallel
N          5.95063       -0.07907       -0.00480
C          4.80916       -0.13585       -0.00182
C          3.36992       -0.18590        0.00129
C          2.82499       -1.50899       -0.00243
N          1.75486       -1.72949        0.00051
C          0.51099       -1.23691        0.00466
C         -0.54043       -2.16287        0.00619
C         -1.83250       -1.66844        0.00875
C         -2.07023       -0.32370        0.00987
N         -1.07327        0.58008        0.00994
C          0.22666        0.15508        0.00779
C          1.23309        1.15606        0.00888
C          0.82768        2.54704        0.01361
N          0.52683        3.65045        0.01779
C          2.63019        0.99703        0.00651
H          3.22148        1.91215        0.00891
C         -3.47238        0.04049        0.01148
C         -4.16321        1.28729       -0.07712
N         -4.74033        2.27255       -0.02793
C         -4.00431       -1.31777        0.01204
C         -3.03666       -2.31224        0.01042
H         -3.20528       -3.38650        0.01042
H         -5.05932       -1.58086        0.01357
H         -0.35270       -3.23423        0.00457
H          3.34671       -2.45850       -0.03316
