24
Coordinates from ORCA-job ./opt_b97-3c_parallel
N         -5.96237       -1.00174       -0.11853
C         -4.83298       -0.84210       -0.06053
C         -3.41582       -0.68648        0.00141
C         -3.02360        0.62521       -0.08473
N         -1.86271        1.29037       -0.07664
C         -0.62681        0.66676        0.02044
C         -0.34523       -0.75025        0.12961
N         -1.21070       -1.77480        0.18610
C         -2.54981       -1.81549        0.14234
H         -2.98357       -2.82522        0.21014
N          0.85270       -1.23453        0.20334
C          1.91797       -0.50246        0.14584
C          1.82688        0.91812        0.05638
C          3.05930        1.47746        0.00881
C          3.93036        0.48147        0.05070
C          3.28090       -0.72154        0.12972
C          3.99561       -1.95977        0.16449
N          3.68397       -2.85915       -0.46904
H          5.01186        0.60455        0.02541
H          3.29498        2.53810       -0.05530
C          0.52923        1.55390       -0.00565
C          0.42186        2.97903       -0.10728
N          0.36950        4.11774       -0.17744
H         -3.59865        1.55902       -0.19030
