29
Coordinates from ORCA-job ./opt_b97-3c_parallel
N          6.48280        0.89943       -0.00619
C          5.36010        0.68495       -0.00392
C          3.94932        0.39551       -0.00098
C          3.11801        1.56071        0.00283
N          2.02861        1.48274        0.00336
C          0.90983        0.74273        0.00353
C          0.96573       -0.66998        0.00220
N         -0.19564       -1.38034        0.00217
C         -1.38911       -0.75358        0.00176
C         -1.50904        0.61787        0.00150
C         -2.84628        1.14704       -0.00215
C         -3.63770        2.33439       -0.10686
N         -4.47804        3.09767        0.02450
C         -3.25404       -0.24200        0.00338
N         -4.60027       -0.50284        0.02469
H         -5.26874        0.26098        0.00047
H         -4.93771       -1.46036       -0.00012
C         -2.59567       -1.52994        0.00104
C         -2.75969       -2.95152        0.01189
N         -3.42130       -3.88370        0.00892
C         -0.34309        1.38869        0.00388
C         -0.43146        2.83403        0.00644
N         -0.51374        3.97390        0.00541
C          2.18030       -1.40830        0.00072
C          2.11041       -2.85547       -0.00020
N          2.07289       -3.99786       -0.00112
C          3.50320       -0.92742       -0.00140
H          4.29188       -1.67984       -0.00349
H          3.40997        2.60482        0.01343
