26
Coordinates from ORCA-job ./opt_b97-3c_parallel
N          6.22736        0.48017       -0.00295
C          5.08543        0.43382       -0.00230
C          3.64764        0.35197       -0.00125
C          2.97677        1.61602       -0.00040
N          1.89028        1.73773       -0.00022
C          0.69788        1.12989        0.00050
C         -0.44095        1.95177        0.00025
C         -1.69607        1.35920        0.00135
N         -2.91638        1.93741        0.00159
C         -3.61300        1.04794        0.00317
N         -4.95535        1.29809        0.00581
H         -5.61952        0.53076       -0.00247
H         -5.30506        2.24948       -0.00726
C         -3.12486       -0.31677        0.00365
C         -3.68469       -1.63136        0.00547
N         -4.47433       -2.45858        0.01470
C         -1.75341        0.00618        0.00239
N         -0.70029       -0.82767        0.00243
C          0.55151       -0.28327        0.00118
C          1.64855       -1.18497        0.00072
C          1.37510       -2.60833        0.00162
N          1.17501       -3.73382        0.00129
C          3.02328       -0.89535       -0.00068
H          3.69816       -1.75137       -0.00137
H         -0.34700        3.03552       -0.00090
H          3.40582        2.61128        0.01658
