30
Coordinates from ORCA-job ./opt_b97-3c_parallel
N          3.70920        3.33322       -0.02776
C          3.13685        2.34376       -0.04865
C          2.65476        1.00064       -0.03753
C          3.33558       -0.28296       -0.02219
N          4.70291       -0.36975       -0.05353
H          5.16218       -1.26731        0.06242
H          5.26029        0.47574        0.02571
C          2.53870       -1.48975        0.00520
C          1.24187       -0.88383       -0.01345
C          1.31812        0.47684       -0.03404
C          0.15851        1.23816       -0.04623
C         -1.11146        0.63460       -0.03805
C         -2.15891        1.56968       -0.04498
C         -3.54093        1.39578       -0.03402
N         -4.30364        2.53135       -0.02872
H         -3.85557        3.41816        0.17258
H         -5.29461        2.44690        0.17154
C         -4.24263        0.20155       -0.02554
C         -3.73156       -1.08282       -0.01792
C         -2.41062       -1.51001       -0.01400
C         -1.20348       -0.78304       -0.02060
C          0.00684       -1.53541       -0.00836
C          0.04547       -2.98258        0.01078
N          0.06674       -4.12601        0.03104
H         -2.36090       -2.59316       -0.00296
H         -4.47649       -1.87551       -0.01036
H         -5.32952        0.26943       -0.02385
H         -1.85603        2.61589       -0.05921
H          0.25552        2.32238       -0.05952
H          2.83656       -2.53337       -0.00170
