26
Coordinates from ORCA-job ./opt_b97-3c_parallel
N         -6.03661       -0.77314       -0.30559
C         -4.92616       -0.54117       -0.17264
C         -3.53075       -0.29080        0.01890
C         -2.83085       -1.43851        0.33086
N         -1.53356       -1.80644        0.38232
C         -0.48158       -0.93276        0.12130
N          0.66997       -1.54350        0.01488
C          1.69359       -0.73086       -0.07827
C          1.49604        0.69890       -0.13886
N          0.42075        1.02927       -0.10612
C         -0.57228        0.52253        0.04444
C         -1.66244        1.26689        0.36830
C         -2.91556        1.00228       -0.09199
N         -3.38016        1.96368       -0.37911
H         -4.38976        1.84738       -0.47427
H         -3.19934        2.95536       -0.53571
H         -1.54606        2.00537        1.16560
C          2.84831        1.15021       -0.19998
C          3.18561        2.53760       -0.22389
N          3.44066        3.65060       -0.20927
C          3.81369        0.18461       -0.20172
C          3.05049       -0.95117       -0.12691
C          3.79443       -2.17211       -0.11393
N          3.44254       -3.21077       -0.43749
H          4.71724        0.29794        0.39546
H         -3.19091       -2.46749        0.48732
