25
Coordinates from ORCA-job ./opt_b97-3c_parallel
N         -5.71903       -0.68318        0.18059
C         -4.58753       -0.54918        0.10658
C         -3.17683       -0.34113        0.03252
C         -2.40326       -1.48831        0.05196
N         -1.08823       -1.80437        0.00519
C         -0.04954       -0.87659       -0.05867
C          1.18499       -1.47736       -0.07465
C          2.26950       -0.64060       -0.01962
N          3.64665       -0.83892        0.02854
C          4.41208        0.32287        0.06029
N          5.50168        0.13097        0.09633
H          6.03189       -0.67744       -0.23660
H          6.20927        0.77319        0.46065
C          3.41234        1.24572        0.02476
C          2.20300        0.72238       -0.02040
N          0.97213        1.21228       -0.05971
C         -0.20788        0.56142       -0.08135
N         -1.34029        1.17755       -0.10424
C         -2.61227        0.97148       -0.06342
N         -2.80774        2.05621       -0.11902
H         -2.80493        3.04643       -0.36282
H         -3.79033        1.78487       -0.07165
H          3.59577        2.31911        0.03977
H          1.30348       -2.48865       -0.46133
H         -2.80817       -2.51120        0.11574
