25
Coordinates from ORCA-job ./opt_b97-3c_parallel
N         -5.99310       -0.83450       -0.12237
C         -5.11142       -0.25844        0.32173
C         -4.05355       -0.17136        0.02219
C         -3.15690        0.85454        0.04530
N         -2.00289        1.61200        0.05745
C         -0.77956        0.94538        0.02580
C          0.30442        1.80874        0.05337
C          1.62303        1.25189        0.03176
C          2.84055        1.87338        0.05713
C          3.64742        0.74700        0.05808
N          4.71683        1.02306        0.10477
H          5.34601        0.23004        0.22953
H          5.31250        1.83814       -0.04101
C          2.96722       -0.45652        0.02074
C          3.52776       -1.77364        0.03332
N          3.94167       -2.83753        0.06284
C          1.64653       -0.14582       -0.00575
N          0.63094       -1.07813       -0.04264
C         -0.60176       -0.52292       -0.03381
N         -1.64973       -1.44049       -0.09005
C         -2.94208       -0.95686       -0.04571
H         -3.21222       -2.01924       -0.15534
H          3.04108        2.72133       -0.59787
H          0.17921        2.88784        0.09380
H         -3.57416        1.87365        0.08567
