27
Coordinates from ORCA-job ./opt_b97-3c_parallel
N          4.79625        0.96877       -1.18522
C          4.23369        1.25988       -0.23316
C          2.82176        1.37639       -0.04711
C          2.39451        2.73848        0.18098
N          1.30074        2.96742        0.31495
C          0.66910        1.77779        0.20852
C          1.54508        0.76652        0.00366
C          1.17258       -0.56618       -0.06063
C          2.22810       -1.51335       -0.34432
N          3.07156       -2.24470       -0.58718
C         -0.20521       -0.89091        0.05485
C         -0.61515       -2.24522        0.17376
C          0.15661       -3.37411        0.64432
N          0.75498       -4.26343        1.04173
C         -1.96637       -2.72240        0.33152
N         -2.90058       -2.42131       -0.17135
C         -3.13427       -1.37071       -0.40960
C         -2.54841       -0.09791       -0.07503
C         -3.65711        0.79292       -0.33458
N         -4.54096        1.48252       -0.55927
C         -1.16403        0.17826        0.08244
C         -0.69863        1.51297        0.25855
C         -1.54732        2.64531        0.56614
N         -2.20044        3.54517        0.83292
H         -3.70789       -1.64389       -1.29061
H         -2.33538       -3.74208        0.40543
H          2.98037        3.64939        0.23420
