28
Coordinates from ORCA-job ./opt_b97-3c_parallel
N         -5.92493       -1.33731       -0.01349
C         -4.85013       -0.94725        0.00314
C         -3.50211       -0.44046        0.02110
C         -2.57780       -1.54749        0.07865
N         -1.47180       -1.50988        0.06885
C         -0.46526       -0.60967        0.02102
C          0.85197       -1.07469        0.03137
C          1.91897       -0.17974       -0.01833
C          1.67850        1.17960       -0.08019
C          2.81747        2.04530       -0.12851
C          3.55550        0.81013       -0.01249
N          4.88041        1.12346        0.12086
H          5.56654        0.37864        0.05244
H          5.18414        2.07328       -0.06252
C          3.28733       -0.61002       -0.00555
C          3.95030       -1.86987       -0.13460
N          4.66132       -2.75019        0.02387
H          2.96970        2.92526        0.48944
C          0.37206        1.66270       -0.08894
C         -0.70980        0.77940       -0.03820
N         -1.96469        1.28270       -0.04761
C         -3.00705        0.91532       -0.02251
N         -3.81622        2.01351       -0.07121
H         -3.41675        2.94192        0.00317
H         -4.82011        1.90868        0.02827
H          0.19355        2.73497       -0.13492
H          1.04512       -2.14434        0.07866
H         -2.77576       -2.60883       -0.01608
