24
Coordinates from ORCA-job ./opt_b97-3c_parallel
N          5.40725        0.89241        0.00156
C          4.27542        0.73367        0.00132
C          2.85189        0.51268        0.00130
C          2.07075        1.71131        0.00104
N          0.97846        1.72377        0.00068
C         -0.15245        1.00887        0.00164
C         -1.35647        1.72575        0.00026
C         -2.53530        1.00253        0.00266
C         -2.51370       -0.36281        0.00748
N         -1.37217       -1.07301        0.00768
C         -0.17340       -0.41245        0.00357
C          1.00357       -1.20648        0.00233
C          0.86703       -2.64972        0.00202
N          0.77957       -3.78923        0.00125
C          2.34620       -0.78765        0.00105
H          3.09888       -1.57581        0.00043
C         -3.83218       -0.94852        0.02024
C         -4.62618        0.26993        0.00487
C         -3.84208        1.41687        0.00083
H         -4.19796        2.44412       -0.00455
H         -5.71047        0.34856        0.00086
H         -4.13812       -1.98854       -0.02976
H         -1.36921        2.81344       -0.00165
H          2.40670        2.74179        0.00236
