30
Coordinates from ORCA-job ./opt_b97-3c_parallel
N          6.35483        0.47509        0.07629
C          5.21558        0.39180        0.06445
C          3.78022        0.26859        0.05738
C          3.11885        1.52331        0.23960
N          2.03206        1.51500        0.14978
C          0.81964        0.95537        0.04235
C         -0.29636        1.81139        0.00933
C         -0.13800        3.25281        0.01593
N         -0.02796        4.39056        0.01703
C         -1.57972        1.27745       -0.03314
C         -1.76361       -0.08446        0.05243
C         -3.13748       -0.52085        0.11088
C         -4.10175       -1.57246       -0.00627
N         -4.77576       -2.27042        0.59787
C         -3.53146        0.86406       -0.00674
N         -4.80797        1.35744        0.00661
H         -5.58059        0.70419       -0.07554
H         -4.96916        2.32360       -0.25568
C         -2.76693        2.08248       -0.09033
H         -2.94631        2.89335       -0.79178
C         -0.66387       -0.95505        0.09689
C         -0.97469       -2.32866        0.43542
N         -1.23514       -3.40312        0.72798
C          0.66837       -0.45200       -0.02087
C          1.80649       -1.30422       -0.22674
C          1.66194       -2.66587       -0.69730
N          1.57500       -3.73469       -1.09342
C          3.17603       -0.96570       -0.19103
H          3.88253       -1.77470       -0.38318
H          3.41718        2.36371        0.85597
