23
Coordinates from ORCA-job ./opt_b97-3c_parallel
N         -5.96368       -0.51131       -0.09518
C         -4.82890       -0.39328       -0.04193
C         -3.40641       -0.28798        0.00931
C         -2.98285        1.01577       -0.04067
N         -1.80975        1.65822       -0.02634
C         -0.59281        1.00538        0.03687
C          0.53476        1.91290        0.02444
C          1.75807        1.30609        0.06450
C          3.05174        1.89025        0.04698
C          4.09187        0.98912        0.08422
C          3.39206       -0.19984        0.11640
C          3.98722       -1.49865        0.12711
N          4.42572       -2.55305        0.12193
C          1.97800       -0.01238        0.11347
N          0.97256       -0.95769        0.13618
C         -0.32206       -0.43239        0.10053
N         -1.19749       -1.50333        0.13572
C         -2.57798       -1.45000        0.10330
H         -3.05461       -2.44186        0.14199
H          4.96151        1.11170       -0.55893
H          3.20053        2.96505        0.00297
H          0.39050        2.98877       -0.02354
H         -3.54230        1.96234       -0.10999
