32
Coordinates from ORCA-job ./opt_b97-3c_parallel
N         -5.66041       -0.54902       -0.13319
C         -4.52500       -0.42351       -0.07863
C         -3.07247       -0.27345       -0.01898
C         -2.34908       -1.46780        0.07959
C         -0.97282       -1.64438        0.08396
C          0.10516       -0.74473        0.02595
C          0.00757        0.68338        0.02867
C          1.23598        1.41044        0.02879
C          2.46929        0.78738        0.00448
C          2.52284       -0.55290       -0.02262
C          3.90578       -0.83452       -0.05490
C          4.43966        0.50832       -0.03663
N          5.78651        0.72587       -0.05760
H          6.43792       -0.05055       -0.08135
H          6.15303        1.67145       -0.03776
N          3.69547        1.35489       -0.00651
H          4.44395       -1.77609       -0.08772
C          1.39707       -1.35560       -0.01094
C          1.64771       -2.78225       -0.05207
N          1.82527       -3.91075       -0.08455
H          1.30180        2.49318        0.03782
C         -1.19524        1.45767        0.02215
C         -1.04409        2.91105        0.08398
N         -0.94495        4.04869        0.13943
C         -2.55209        1.03660       -0.04793
N         -3.51135        2.03422       -0.15038
H         -3.23725        3.00687       -0.05861
H         -4.49340        1.79641       -0.05761
H         -0.72751       -2.69901        0.14468
N         -3.04053       -2.65713        0.16249
H         -2.54234       -3.53296        0.04709
H         -4.04587       -2.65332        0.02187
