26
Coordinates from ORCA-job ./opt_b97-3c_parallel
N         -5.82756       -0.61941        0.00161
C         -4.68681       -0.55952        0.00413
C         -3.25707       -0.52220        0.00287
C         -2.62454       -1.75108        0.00065
N         -1.33360       -2.14917       -0.00107
C         -0.28751       -1.22847       -0.00101
C          1.02433       -1.82272       -0.00323
C          2.15090       -1.03075       -0.00234
N          3.42491       -1.41497       -0.00332
C          4.11758       -0.21519       -0.00175
N          5.21554       -0.32718       -0.00253
H          5.83299        0.48460       -0.00476
H          5.82339       -1.14621       -0.00225
N          3.36061        0.84691        0.00063
C          2.14628        0.38991       -0.00027
C          0.80820        0.93905       -0.00029
C          0.96454        2.37853       -0.00880
N          1.11299        3.51127       -0.01531
C         -0.44322        0.21100        0.00145
N         -1.39331        0.78211        0.00413
C         -2.49444        0.69680        0.00443
N         -2.78745        1.76399        0.00637
H         -3.79391        1.60271        0.00774
H         -2.66012        2.77415        0.00828
H          1.09481       -2.90713       -0.00502
H         -3.09291       -2.74713       -0.00039
