24
Coordinates from ORCA-job ./opt_b97-3c_parallel
N          5.67878        0.64105        0.19166
C          4.54795        0.50432        0.09951
C          3.13375        0.31967        0.02162
C          2.39236        1.48678       -0.02061
N          1.08896        1.84636       -0.07963
C          0.11254        0.91277       -0.09832
C         -1.16780        1.57775       -0.12997
C         -2.30760        0.69449       -0.06613
N         -3.57557        1.11639       -0.03104
C         -4.05891       -0.18084        0.01263
N         -5.16103       -0.26029        0.05651
H         -5.86888        0.40967       -0.24377
H         -5.66812       -1.05608        0.44368
N         -3.30830       -1.34398        0.00783
C         -2.14680       -0.68454       -0.04325
N         -0.93034       -1.27040       -0.06328
C          0.16665       -0.48388       -0.08579
N          1.26920       -1.16894       -0.08756
C          2.54075       -0.98245       -0.01575
N          2.65943       -2.07847       -0.01438
H          2.49691       -3.04713       -0.28233
H          3.66655       -1.92954       -0.04913
H         -1.27351        2.65435       -0.23548
H          2.77751        2.51794       -0.00547
