26
Coordinates from ORCA-job ./opt_b97-3c_parallel
N          3.79678        2.78803       -0.30764
C          3.24498        1.80704       -0.11194
C          2.58727        0.55774        0.12053
C          3.11167       -0.70571        0.13537
N          4.40775       -1.05001        0.18644
H          5.12291       -0.39049       -0.11529
H          4.70188       -1.98506       -0.08846
C          2.11221       -1.58362        0.09502
C          0.85394       -0.80176        0.05459
C          1.15565        0.54280        0.07852
C          0.08318        1.50140        0.05583
C         -1.26451        0.96859        0.04376
N         -2.01629        2.09480        0.12896
C         -3.36756        2.14221        0.13253
N         -4.35520        1.18710       -0.02253
C         -3.94403       -0.10921       -0.11102
C         -2.91362       -0.97606       -0.08408
C         -1.53939       -0.41449       -0.01332
C         -0.44715       -1.30238        0.00244
C         -0.62870       -2.73575       -0.00955
N         -0.76835       -3.87022       -0.00386
H         -3.14124       -2.03822       -0.12801
H         -4.91993       -0.59406       -0.26327
H         -3.80985        3.14632        0.21596
H          0.30240        2.56587        0.00022
H          2.30237       -2.65493        0.09916
