24
Coordinates from ORCA-job ./opt_b97-3c_parallel
N         -5.16258       -1.76685       -0.13110
C         -4.26630       -1.06213       -0.05732
C         -3.12770       -0.20305        0.00105
C         -1.71942       -0.26193        0.02942
C         -1.30310        1.03625        0.02231
N         -2.33880        1.90174        0.00390
C         -3.25280        1.23927       -0.00948
H         -4.21222        1.77680       -0.04631
C          0.06789        1.30240        0.02503
C          0.55901        2.66082        0.01468
N          0.97821        3.72346        0.00799
C          0.94421        0.20140        0.02879
N          2.27600        0.38442       -0.00155
C          3.46176       -0.31950       -0.01353
N          4.32730        0.35939       -0.06478
H          5.24854       -0.06708       -0.15681
H          4.44882        1.35059       -0.27021
N          3.74677       -1.67084        0.01869
C          2.60171       -2.44466        0.06175
C          1.24189       -2.33895        0.06916
C          0.40592       -1.10182        0.05017
N         -0.92639       -1.35242        0.04781
H          0.63891       -3.24588        0.08683
H          2.90201       -3.50351        0.09386
