26
Coordinates from ORCA-job ./opt_b97-3c_parallel
N          5.37300        0.99806        0.05872
C          4.27134        0.69203        0.06124
C          2.89067        0.28140        0.06130
C          2.00644        1.42130        0.02777
N          0.90165        1.36829        0.01098
C         -0.13932        0.50058        0.01475
C          0.09988       -0.89909        0.04984
N          1.35380       -1.40599        0.05841
C          2.40978       -1.08032        0.03946
N          3.21738       -2.16162       -0.16906
H          2.83795       -3.09988       -0.11669
H          4.22526       -2.04652       -0.17215
C         -0.97406       -1.79668        0.06864
C         -2.26456       -1.29218        0.04032
C         -3.47479       -1.96597        0.04256
C         -4.47736       -1.00281       -0.00344
C         -3.88165        0.25460       -0.03211
C         -2.50626        0.06033       -0.00364
C         -1.46371        0.98431       -0.01493
C         -1.75957        2.39950       -0.05649
N         -2.00876        3.51469       -0.08978
H         -4.40189        1.20883       -0.07241
H         -5.54659       -1.19933       -0.01689
H         -3.61620       -3.04387        0.07236
H         -0.80255       -2.87042        0.09875
H          2.24170        2.47016        0.16651
