25
Coordinates from ORCA-job ./opt_b97-3c_parallel
N         -5.08613       -1.64037       -0.04160
C         -4.30556       -0.80860       -0.00663
C         -3.32435        0.22843       -0.00102
C         -1.93128       -0.01521        0.00083
C         -1.29820        1.24170        0.00605
N         -2.36384        2.12760        0.00610
C         -3.57414        1.57092        0.00164
H         -4.49186        2.17921       -0.00107
N         -0.00237        1.24094        0.00920
C          0.78751        0.19664        0.00301
C          2.15614        0.52986       -0.00028
C          2.62626        1.89927        0.00236
N          2.61349        3.04229       -0.00248
C          3.28672       -0.39777       -0.00876
N          4.37810       -0.17727       -0.02055
H          5.25481       -0.69783       -0.02465
H          4.63903        0.80811       -0.02620
C          3.31638       -1.76841       -0.01087
C          2.12457       -2.39506       -0.01269
N          0.76347       -2.37264       -0.01009
C          0.15411       -1.13431       -0.00278
C         -1.23195       -1.20048       -0.00260
H         -1.75049       -2.15613       -0.00721
H          2.27206       -3.48627       -0.01404
H          4.22226       -2.38638        0.04683
