22
Coordinates from ORCA-job ./opt_b97-3c_parallel
N         -5.47833       -0.04313       -0.00019
C         -4.33523       -0.04006        0.00129
C         -2.89635       -0.02118        0.00307
C         -2.27471        1.27972        0.00316
N         -1.17921        1.43188        0.00216
C         -0.01220        0.75098        0.00065
C          1.18746        1.47068       -0.00025
C          2.37482        0.75565       -0.00190
C          3.72110        1.16045       -0.00310
C          4.37040       -0.13170       -0.00456
N          3.70967       -1.04899       -0.00437
C          2.43565       -0.60020       -0.00271
C          1.25492       -1.33577       -0.00179
C          0.02223       -0.66646       -0.00008
N         -1.11472       -1.39745        0.00085
C         -2.21592       -1.29229        0.00217
H         -2.64252       -2.28803        0.00518
H          1.29208       -2.42276       -0.00242
H          5.42715       -0.37068       -0.00581
H          4.17346        2.14675       -0.00292
H          1.19215        2.55811        0.00033
H         -2.74552        2.25549       -0.00113
