32
Coordinates from ORCA-job ./opt_b97-3c_parallel
N         -5.76920       -0.33016        0.37006
C         -4.64243       -0.17552        0.24798
C         -3.21613        0.03422        0.10086
C         -2.43711       -1.16980        0.04237
N         -1.34975       -1.23765        0.04379
C         -0.17725       -0.58668        0.02241
C          1.00899       -1.34471        0.03402
C          0.96998       -2.79286        0.06525
N          0.95252       -3.93554        0.09394
C          2.24535       -0.70122        0.02031
C          2.31141        0.67384       -0.01449
C          3.63984        1.22272       -0.00349
C          4.17869       -0.11218        0.05828
N          5.53504       -0.10526        0.21633
H          6.04708       -0.97501        0.11458
H          6.04074        0.76603        0.09646
C          3.50764       -1.38734        0.03722
H          3.74861       -2.24570        0.65709
H          4.01350        2.02171       -0.63688
C          1.14707        1.44860       -0.04460
C          1.31462        2.88691       -0.09843
N          1.45111        4.02037       -0.15547
C         -0.12739        0.82617       -0.01734
C         -1.28634        1.64738       -0.01580
C         -2.65454        1.32160        0.05431
N         -3.50562        2.39842        0.09151
H         -3.12218        3.32368        0.25214
H         -4.48292        2.24170        0.31752
H         -1.12741        2.72050       -0.05274
N         -2.86393       -2.37587       -0.44036
H         -2.23930       -3.17399       -0.40400
H         -3.85974       -2.56086       -0.49805
