29
Coordinates from ORCA-job ./opt_b97-3c_parallel
N         -4.45198       -2.64234        0.06150
C         -3.71848       -1.76424        0.03492
C         -2.89287       -0.59957        0.07207
C         -3.09321        0.83503        0.06634
N         -4.39257        1.26442        0.01817
H         -4.61120        2.25454        0.05267
H         -5.15262        0.58985        0.01937
C         -2.07550        1.85474        0.18508
C         -1.02668        0.88244        0.06846
C         -1.46971       -0.41773        0.04040
C         -0.56001       -1.46936        0.00312
C          0.81841       -1.22288       -0.01208
C          1.63810       -2.36713       -0.02335
C          3.03486       -2.46016       -0.03851
C          3.95442       -1.41328       -0.04921
C          3.61266       -0.02283       -0.04651
N          2.59664        0.38541       -0.02759
C          1.27899        0.11159       -0.00978
C          0.34283        1.16692        0.02672
C          0.77477        2.54863        0.02733
N          1.09976        3.64412        0.01677
N          4.55661        0.96167       -0.01953
H          5.53549        0.72326        0.09681
H          4.27874        1.92795        0.10751
H          5.01881       -1.63656       -0.06147
H          3.45201       -3.46456       -0.04035
H          1.12871       -3.32855       -0.01506
H         -0.93246       -2.49174       -0.00223
H         -2.10549        2.86000       -0.22253
