26
Coordinates from ORCA-job ./opt_b97-3c_parallel
N          5.25279        1.48918        0.54659
C          4.39347        0.78678        0.27977
C          3.28201       -0.05968       -0.03214
C          1.94015        0.14286       -0.01013
N          1.25850        1.26750        0.31342
C         -0.11429        1.07195        0.28719
N         -0.52321        2.29210        0.44853
C         -1.69483        2.66105        0.03113
C         -2.93419        2.14493       -0.23364
C         -3.17002        0.82899       -0.18429
N         -4.37428        0.29323       -0.44415
H         -5.21253        0.87310       -0.40086
H         -4.62419       -0.61941       -0.06219
C         -2.18491       -0.07438        0.13937
C         -2.32660       -0.59071        1.47321
N         -2.38973       -1.00656        2.53525
C         -0.81676       -0.07227        0.00239
C         -0.13731       -1.15201       -0.41752
C         -0.40441       -2.17783       -0.75010
N         -1.05238       -2.62312       -1.57887
C          1.23615       -1.04977       -0.40259
N          2.33159       -1.29060       -0.44136
C          3.44306       -1.41715       -0.43651
H          4.40766       -1.93595       -0.54930
H         -3.74436        2.82687       -0.48869
H         -1.60694        3.39123       -0.78906
