27
Coordinates from ORCA-job ./opt_b97-3c_parallel
N         -5.21526       -2.32498       -0.14130
C         -4.22344       -1.76047       -0.08705
C         -2.95020       -1.08884       -0.01232
C         -1.88386       -2.01720        0.22810
N         -0.56970       -1.80208        0.32414
C          0.15535       -0.68415        0.27998
N          1.40939       -1.00261        0.41480
C          2.40390       -0.18637        0.23596
C          2.16282        1.21848        0.17373
C          3.30360        1.90073       -0.07077
C          4.27080        1.00002       -0.14768
C          3.76689       -0.26210        0.02913
C          4.61236       -1.41162       -0.06552
N          4.36415       -2.28516       -0.76013
H          5.31867        1.23256       -0.32904
H          3.41112        2.97939       -0.16618
C          0.78119        1.62772        0.19315
C         -0.31709        0.67107        0.13105
C         -1.61846        1.12446       -0.07763
C         -1.70880        2.56470       -0.23147
N         -1.81780        3.58192        0.27778
C         -2.82356        0.29748       -0.16390
N         -3.76606        0.85845       -0.36392
H         -4.68493        0.46103       -0.56165
H         -3.88493        1.87024       -0.42114
H          0.90078        2.45420        0.89255
H         -1.96565       -3.10896        0.34690
