26
Coordinates from ORCA-job ./opt_b97-3c_parallel
N         -4.90502       -0.79312       -0.83616
C         -4.47337        0.08074       -0.23693
C         -3.19664        0.69611       -0.06498
C         -3.00626        2.12023        0.09895
N         -1.96946        2.54593        0.20871
C         -1.14053        1.47989        0.13400
C         -1.83434        0.33041       -0.02385
C         -1.24023       -0.91431       -0.03816
C          0.16095       -1.00112        0.04359
C          0.71877       -2.29727        0.08645
C         -0.02439       -3.53568        0.12706
N         -0.61726       -4.51145        0.17682
C          2.11489       -2.60738        0.24621
N          3.08172       -2.12966        0.01931
C          3.14301       -1.05140       -0.20032
C          2.35290        0.14023       -0.01880
C          3.28808        1.19336       -0.34820
N          4.03298        2.01166       -0.63344
C          0.93863        0.20105        0.08588
C          0.25486        1.44689        0.21035
C          0.90177        2.70526        0.51762
N          1.39668        3.70039        0.78660
H          4.06776       -1.18662       -0.75483
H          2.56819       -3.47085        0.72268
H         -1.87819       -1.79089       -0.11010
H         -3.74282        2.91460        0.12761
