28
Coordinates from ORCA-job ./opt_b97-3c_parallel
N          4.79409        2.13933       -0.00528
C          4.28617        1.11547       -0.00100
C          3.35721        0.03144        0.00024
C          1.95520       -0.10575        0.00003
C          1.71699       -1.42556        0.00078
N          2.84822       -2.16025        0.00178
C          3.66628       -1.38209        0.00140
H          4.63265       -1.87225        0.00175
C          0.40604       -1.86213        0.00023
C         -0.69802       -0.96050       -0.00124
C         -1.97736       -1.57780       -0.00216
C         -2.11543       -3.02303       -0.00087
N         -2.24318       -4.15908       -0.00008
C         -3.23339       -0.98424       -0.00513
C         -3.58557        0.34552       -0.00778
C         -2.77704        1.46715       -0.00623
N         -3.51710        2.62861       -0.01289
H         -3.05042        3.52982        0.00736
H         -4.53025        2.59190        0.00595
C         -1.36660        1.52714       -0.00224
C         -0.85675        2.89556        0.00193
N         -0.47304        3.97280        0.00596
C         -0.42212        0.45241       -0.00144
C          0.94973        0.83533       -0.00096
H          1.29992        1.86207       -0.00194
H         -4.66090        0.52025       -0.01113
H         -4.09362       -1.65437       -0.00618
H          0.29478       -2.94169        0.00078
