29
Coordinates from ORCA-job ./opt_b97-3c_parallel
N         -4.39390       -2.81137        0.02314
C         -3.74910       -1.88910       -0.17603
C         -2.94834       -0.71216       -0.04751
C         -3.14653        0.71806       -0.03973
N         -4.42764        1.17660        0.10112
H         -5.19356        0.51422        0.03667
H         -4.62411        2.15588       -0.07467
C         -2.28038        1.86578       -0.15069
C         -1.19063        0.93186       -0.09528
C         -1.54794       -0.39996       -0.04832
C         -0.56807       -1.38411       -0.00349
C          0.78694       -1.04335       -0.00476
C          1.67824       -2.12411        0.03340
C          3.11152       -2.02046        0.03254
N          3.88209       -1.23104        0.02804
C          3.65801       -0.15245       -0.00254
N          4.94587        0.30333       -0.02780
H          5.13572        1.29606        0.04895
H          5.71574       -0.34469        0.09706
C          2.51876        0.72628       -0.03861
C          1.16917        0.32171       -0.04339
C          0.15849        1.30909       -0.08787
C          0.47231        2.72231       -0.12347
N          0.71602        3.83898       -0.13766
H          2.83220        1.76669       -0.06522
H          3.84520       -2.81798        0.00642
H          1.32598       -3.15297        0.06022
H         -0.86786       -2.43033        0.03138
H         -2.36988        2.77916        0.43013
