25
Coordinates from ORCA-job ./opt_b97-3c_parallel
N          5.44201        1.04187        0.00029
C          4.32340        0.80493        0.00012
C          2.92939        0.46669       -0.00008
C          1.97293        1.52644        0.00036
N          0.90347        1.76879        0.00043
C          0.06149        1.05928       -0.00005
C         -1.15874        1.84117       -0.00007
C         -2.36798        1.18668       -0.00043
N         -3.53376        1.88123       -0.00070
C         -4.33776        0.79979       -0.00113
N         -3.84796       -0.41686       -0.00108
C         -2.56943       -0.20316       -0.00068
C         -1.34137       -0.95862       -0.00091
C         -1.61449       -2.37754       -0.00117
N         -1.81413       -3.50336       -0.00162
C         -0.05460       -0.38901       -0.00048
C          1.08598       -1.30426       -0.00068
C          2.47482       -0.84862       -0.00054
N          3.10821       -1.75816       -0.00086
H          2.89890       -2.75476       -0.00170
H          4.12363       -1.67176       -0.00128
H          0.91081       -2.37912       -0.00104
H         -5.42704        0.64173       -0.00158
H         -1.11689        2.93039        0.00017
H          2.36132        2.55655        0.00079
