32
Coordinates from ORCA-job ./opt_b97-3c_parallel
N         -5.62742       -0.54673       -0.00398
C         -4.48970       -0.42578       -0.01188
C         -3.03496       -0.27772       -0.00603
C         -2.30475       -1.47378        0.05021
C         -0.92635       -1.65189        0.06013
C          0.14731       -0.74669        0.01208
C          0.03772        0.67074       -0.05073
N          1.18940        1.40948       -0.10606
C          2.40437        0.84866       -0.08438
C          2.58062       -0.50063       -0.00007
C          3.94753       -0.94523        0.04671
C          4.34016        0.43987       -0.06730
N          5.68947        0.64327       -0.15453
H          6.05045        1.58962       -0.09923
H          6.32012       -0.12465        0.04873
C          3.57797        1.66291       -0.15919
H          3.74461        2.57110        0.41150
H          4.36017       -1.77773       -0.51502
C          1.45582       -1.32364        0.03431
C          1.71885       -2.74850        0.07915
N          1.92844       -3.87256        0.09700
C         -1.15831        1.44666       -0.06210
C         -0.96913        2.90056       -0.08638
N         -0.83790        4.03714       -0.09514
C         -2.51623        1.03354       -0.05229
N         -3.47115        2.03855       -0.09337
H         -3.18264        3.00447        0.02439
H         -4.44692        1.80605        0.05941
H         -0.67380       -2.70487        0.11608
N         -2.99288       -2.66673        0.10952
H         -2.48985       -3.53854       -0.01739
H         -3.99766       -2.66520       -0.03562
