30
Coordinates from ORCA-job ./opt_b97-3c_parallel
N         -5.30330       -0.80850        0.00308
C         -4.17503       -0.62466       -0.00580
C         -2.73125       -0.39732       -0.00426
C         -1.93816       -1.55363       -0.00256
C         -0.55288       -1.65582       -0.00157
C          0.46822       -0.69269       -0.00106
C          0.28231        0.72456       -0.00080
N          1.38952        1.53512        0.00087
C          2.62500        1.03006        0.00110
C          2.85897       -0.30633       -0.00018
C          4.22195       -0.49478       -0.00024
C          4.80814        0.76401        0.00135
C          3.82393        1.83177        0.00301
H          3.95062        2.90966        0.00153
H          5.89064        0.86496        0.00162
H          4.74937       -1.44594       -0.00122
C          1.80332       -1.20573       -0.00100
C          2.15682       -2.61131       -0.00215
N          2.42110       -3.72372       -0.00284
C         -0.95556        1.43136       -0.00255
C         -0.85133        2.89490       -0.00191
N         -0.78979        4.03731       -0.00142
C         -2.28803        0.94138       -0.00518
N         -3.29724        1.89285       -0.00993
H         -3.06937        2.88171        0.00217
H         -4.27086        1.60728        0.00339
H         -0.24112       -2.69498       -0.00120
N         -2.55975       -2.78298       -0.00385
H         -2.01144       -3.63620        0.00405
H         -3.57326       -2.84183        0.00276
