27
Coordinates from ORCA-job ./opt_b97-3c_parallel
N         -6.34576       -0.68304       -0.14011
C         -5.22052       -0.49769       -0.07001
C         -3.80119       -0.27893        0.02193
C         -3.02484       -1.49141        0.09171
N         -1.91962       -1.44616        0.06626
C         -0.83795       -0.62970        0.03737
C         -1.00730        0.77738        0.02496
N         -2.25491        1.30769       -0.01049
C         -3.33828        1.08510       -0.04440
H         -3.67298        1.87687       -0.70429
C          0.12078        1.62139        0.04205
C         -0.01996        3.06139        0.06372
N         -0.13520        4.19848        0.09518
C          1.39741        1.05629        0.03930
N          2.58887        1.69444        0.04987
C          3.33678        0.85616        0.03377
N          4.64782        1.23761        0.02977
H          5.38757        0.54342        0.02388
H          4.89711        2.21883        0.08890
C          2.93534       -0.53545        0.01136
C          3.81520       -1.66347       -0.02365
N          4.50355       -2.43677       -0.50785
C          1.53850       -0.29907        0.02150
C          0.45784       -1.17588        0.02821
C          0.67844       -2.60369        0.03201
N          0.86623       -3.73111        0.03969
H         -3.18511       -2.35796        0.72265
