26
Coordinates from ORCA-job ./opt_b97-3c_parallel
N         -3.32829       -3.50415       -0.21915
C         -2.96689       -2.42112       -0.17559
C         -2.55286       -1.05316       -0.11584
C         -3.64659       -0.09556       -0.16177
N         -3.66062        1.29250       -0.07145
C         -2.48266        1.98399        0.00642
N         -1.24821        1.64887       -0.02979
C         -0.52473        0.58266       -0.00007
C          0.86838        0.71665        0.02633
C          1.49470        2.01264        0.02388
N          1.46800        3.14307       -0.14587
C          1.72194       -0.46633        0.03893
C          1.19801       -1.79652        0.05221
N          2.29904       -1.93978        0.05503
C          3.40988       -1.86429        0.05003
C          3.09169       -0.47311        0.03107
C          4.17368        0.46623        0.00232
N          5.01296        1.24010       -0.03617
H          4.35966       -2.42105        0.05114
C         -0.22787       -1.84572        0.04924
C         -1.12943       -0.73039       -0.01693
H         -0.16256       -2.80188        0.56661
N         -2.75382        3.04764        0.10025
H         -3.66398        3.50016        0.02175
H         -2.09567        3.77788        0.37220
H         -4.71739       -0.34246       -0.23331
