26
Coordinates from ORCA-job ./opt_b97-3c_parallel
N         -5.99530       -0.12680       -0.00308
C         -4.85272       -0.10373        0.00133
C         -3.41276       -0.09312        0.00357
C         -2.84681        1.22087       -0.03233
N         -1.76689        1.38030       -0.01398
C         -0.51994        0.88895        0.00884
C          0.56493        1.78968        0.01853
C          0.38721        3.22467        0.02368
N          0.26202        4.36019        0.03306
C          1.84361        1.25035        0.02445
C          2.03729       -0.10181        0.02226
N          1.01379       -0.97299        0.02542
C         -0.27230       -0.51043        0.02153
C         -1.30556       -1.48555        0.03666
C         -0.93598       -2.88717        0.06988
N         -0.66223       -3.99669        0.10036
C         -2.69902       -1.29248        0.03395
H         -3.31272       -2.19321        0.05707
C          3.42533       -0.51678        0.02471
C          4.10226       -1.74820       -0.22942
N          4.61289       -2.76963       -0.18381
C          4.00689        0.81973        0.03456
C          3.07542        1.84678        0.03380
H          3.28700        2.91385        0.04092
H          5.07008        1.04746        0.04265
H         -3.33636        2.16718       -0.23317
