24
Coordinates from ORCA-job ./opt_b97-3c_parallel
N         -1.14714       -3.02930        1.68922
C         -1.52343       -2.77917        0.63885
C         -1.28192       -1.39283        0.37790
C         -2.51878       -1.25878       -0.23890
N         -3.16370       -0.04869       -0.49956
C         -2.66877        1.09172        0.10591
N         -1.74283        1.36824        0.96728
C         -0.53650        0.97035        0.66545
C          0.46819        2.00464        0.63362
C          1.71565        1.60434        0.21066
N          2.74055        2.48815        0.14624
C          3.66106        1.60428       -0.29182
N          3.35093        0.34702       -0.50536
C          2.09744        0.30528       -0.18701
C          1.03236       -0.66998       -0.12227
C          1.40152       -1.98686       -0.58077
N          1.66915       -3.03385       -0.95088
C         -0.26699       -0.35231        0.29931
H          4.72668        1.75435       -0.52535
H          0.27512        3.03231        0.93005
N         -3.41870        1.79101       -0.30134
H         -4.43017        1.67761       -0.36559
H         -3.23558        2.77888       -0.47457
H         -3.52621       -1.42460       -0.65141
