30
Coordinates from ORCA-job ./opt_b97-3c_parallel
N         -2.58102       -4.22828       -0.11136
C         -2.05915       -3.21157       -0.11235
C         -1.95723       -1.79040        0.02614
C         -2.70801       -0.55659        0.00034
N         -4.02010       -0.91561       -0.16736
H         -4.28079       -1.88955       -0.05055
H         -4.73798       -0.21007       -0.03669
C         -2.42754        0.85868        0.09114
C         -3.32402        1.88949        0.52290
N         -4.09464        2.65540        0.16641
C         -1.04699        0.44851        0.03191
C         -0.81984       -0.91422        0.01079
C          0.48111       -1.39944       -0.02530
C          1.57004       -0.52984       -0.04927
N          2.78585       -1.09147       -0.06671
C          3.86521       -0.92758       -0.08007
N          4.55195       -2.07970        0.16281
H          5.54479       -2.04241        0.36397
H          4.04573       -2.92295        0.40788
C          4.49478        0.35260       -0.17872
C          3.81999        1.57131       -0.16788
C          2.43794        1.79502       -0.09889
C          1.36747        0.86667       -0.04914
C          0.03293        1.34658       -0.00507
C         -0.26432        2.76407       -0.00160
N         -0.48778        3.88492        0.00847
H          2.20134        2.85400       -0.09871
H          4.44517        2.45932       -0.22191
H          5.58030        0.34146       -0.24584
H          0.65645       -2.47373       -0.03292
