27
Coordinates from ORCA-job ./opt_b97-3c_parallel
N          5.80877        1.11831        0.00020
C          4.70066        0.83777        0.00041
C          3.31069        0.46024        0.00066
C          2.39974        1.56399        0.00117
N          1.31857        1.40837        0.00122
C          0.24802        0.60052        0.00130
C         -1.04109        1.18548        0.00102
C         -1.22560        2.62180        0.00071
N         -1.36565        3.75623       -0.00973
C         -2.16569        0.36265        0.00075
C         -1.99550       -0.97885        0.00151
C         -3.30020       -1.50139        0.00115
C         -4.06478       -0.27588       -0.00032
N         -5.42724       -0.32139       -0.00212
H         -5.97012        0.53491       -0.00222
H         -5.91423       -1.21074       -0.00018
N         -3.48020        0.69013       -0.00029
H         -3.65910       -2.52569        0.00149
C         -0.76180       -1.60057        0.00186
C          0.40911       -0.81132        0.00139
C          1.67392       -1.46679        0.00105
C          1.73121       -2.91225        0.00065
N          1.79110       -4.05368        0.00038
C          2.95767       -0.89012        0.00052
H          3.79967       -1.58280       -0.00001
H         -0.74863       -2.68667        0.00232
H          2.61744        2.62604        0.00232
