29
Coordinates from ORCA-job ./opt_b97-3c_parallel
N         -3.64468       -3.40266       -0.14278
C         -3.02406       -2.45679       -0.30943
C         -2.54133       -1.13664       -0.04951
C         -3.08050        0.20174       -0.00901
N         -4.43434        0.35574        0.10905
H         -5.02990       -0.45968        0.00395
H         -4.84184        1.27154       -0.04635
C         -2.52601        1.53116       -0.05988
C         -1.23952        0.89105       -0.04893
C         -1.26166       -0.48802       -0.04604
C         -0.06994       -1.19925       -0.03931
C          1.15703       -0.53554       -0.04189
N          2.25393       -1.30354       -0.03551
C          3.34542       -1.33275       -0.03263
N          3.81829       -2.60327        0.10900
H          4.80479       -2.76027        0.28028
H          3.17223       -3.36069        0.30262
C          4.19379       -0.18327       -0.09496
C          3.74598        1.13585       -0.09257
C          2.42351        1.60124       -0.06248
C          1.20603        0.87637       -0.04691
C         -0.02207        1.58548       -0.04431
C         -0.07967        3.03320       -0.03829
N         -0.13438        4.17460       -0.02024
H          2.37430        2.68521       -0.06417
H          4.51971        1.89930       -0.12169
H          5.26205       -0.38666       -0.13167
H         -0.09383       -2.28748       -0.03408
H         -2.80919        2.36970        0.56961
