29
Coordinates from ORCA-job ./opt_b97-3c_parallel
N          5.66113        0.25645        0.24838
C          4.52555        0.17831        0.14433
C          3.09816        0.10683       -0.02320
C          2.47175        1.39731       -0.04088
N          1.17638        1.74788       -0.09392
C          0.09808        0.94128       -0.06105
N         -1.05094        1.66564       -0.07222
C         -2.24615        1.06262       -0.02822
N         -3.45424        1.62031       -0.06290
C         -4.25209        0.53540        0.00476
N         -5.28752        0.92170       -0.06227
H         -5.56419        1.81334       -0.47514
H         -6.15814        0.43810        0.15998
C         -3.77130       -0.75243        0.10015
C         -2.36291       -0.29039        0.05587
C         -1.22178       -1.08614        0.07545
C         -1.43614       -2.51069        0.19398
N         -1.63313       -3.63119        0.29331
C          0.05853       -0.47721       -0.01727
C          1.23722       -1.39811       -0.14470
C          2.53744       -1.14058       -0.19072
N          3.36033       -2.19029       -0.40623
H          4.36522       -2.10005       -0.25739
H          3.08596       -3.13252       -0.13329
H          0.96263       -2.44194       -0.26095
H         -4.43809       -1.61090        0.15867
N          2.52155        2.49992        0.01070
H          3.51958        2.35744        0.15655
H          2.30916        3.43714        0.34663
