26
Coordinates from ORCA-job ./opt_b97-3c_parallel
N         -5.84494       -1.85051        0.04193
C         -4.80750       -1.37470        0.00809
C         -3.49464       -0.81310       -0.01300
C         -2.55761       -1.80705       -0.09690
N         -1.22563       -1.88494       -0.12839
C         -0.40745       -0.77284       -0.09109
N          0.79635       -1.26016       -0.12848
C          1.75043       -0.39022       -0.09529
C          1.62750        1.02753       -0.07027
C          2.86191        1.59777       -0.03755
C          3.80193        0.65422       -0.01358
N          5.11562        0.92344        0.05928
H          5.49283        1.80931       -0.27658
H          5.81372        0.19651       -0.08990
C          3.16878       -0.55941       -0.05307
C          3.81817       -1.83543       -0.04906
N          4.01973       -2.74210        0.61518
H          3.04920        2.66999       -0.01058
N          0.37684        1.53663       -0.04506
C         -0.71137        0.64809       -0.04386
C         -2.01779        1.28670        0.02557
C         -2.11546        2.71683        0.09024
N         -2.21181        3.85219        0.16878
C         -3.28210        0.59918        0.05261
H         -4.17704        1.21516        0.12009
H         -2.70110       -2.89790       -0.15269
