27
Coordinates from ORCA-job ./opt_b97-3c_parallel
N         -5.38582       -1.61813       -0.59473
C         -4.58298       -0.86720       -0.28175
C         -3.40733       -0.07349       -0.12017
C         -2.00849       -0.24106       -0.10536
N         -1.31950       -1.38230       -0.06226
C          0.03379       -1.30922        0.03907
C          0.57408       -2.58813        0.17072
C          1.87283       -2.99164        0.40580
C          3.01843       -2.22707        0.38633
C          3.15302       -0.88719        0.05089
N          4.47420       -0.52142       -0.07114
H          5.17763       -1.24935       -0.12958
H          4.69270        0.38114       -0.48118
C          2.13767        0.07909       -0.14617
C          2.62625        1.30538       -0.76317
N          3.02396        2.25130       -1.26831
C          0.72809       -0.05827        0.04237
C         -0.09841        1.10784        0.18899
C          0.36434        2.40311        0.65216
N          0.71600        3.41980        1.03874
C         -1.48309        0.98552        0.08128
N         -2.44669        1.93085        0.18200
C         -3.41279        1.36081        0.06614
H         -4.25203        2.04413        0.12065
H          3.93634       -2.78524        0.56682
H          2.01456       -4.05401        0.59172
H         -0.13875       -3.41302        0.17062
