32
Coordinates from ORCA-job ./opt_b97-3c_parallel
N          6.06476        1.14192        0.37073
C          4.95566        0.88255        0.28164
C          3.55388        0.53878        0.17448
C          2.82628        1.76539        0.25901
N          1.74561        1.70754        0.15331
C          0.57522        1.07215        0.04241
C         -0.59185        1.85619       -0.01807
C         -0.52360        3.30404       -0.04616
N         -0.48420        4.44633       -0.07240
C         -1.83935        1.24191       -0.05530
C         -1.93684       -0.12437        0.07887
C         -3.27971       -0.64494        0.15619
C         -4.17197       -1.76451        0.15683
N         -4.81316       -2.41159        0.84702
C         -3.75517        0.70061       -0.07094
N         -5.05419        1.08764       -0.26233
H         -5.79240        0.41174       -0.09347
H         -5.28899        2.07333       -0.22173
C         -3.07373        1.96879       -0.14213
H         -3.28813        2.76392       -0.85231
C         -0.78288       -0.91869        0.15584
C         -0.99582       -2.28259        0.60098
N         -1.17173       -3.34767        0.97690
C          0.51494       -0.34078        0.00212
C          1.69117       -1.13718       -0.22683
C          1.51403       -2.46192       -0.80492
N          1.39367       -3.49359       -1.28357
C          3.06186       -0.74403       -0.12969
N          4.04185       -1.69508       -0.33011
H          3.78016       -2.59097       -0.72941
H          5.00382       -1.39025       -0.43789
H          2.96989        2.59469        0.94282
