25
Coordinates from ORCA-job ./opt_b97-3c_parallel
N         -5.28585       -0.35825        0.06468
C         -4.23251       -0.70718        0.33988
C         -3.24638       -0.25437        0.13342
C         -2.19576       -1.12098        0.11172
N         -0.89032       -1.56108        0.08485
C          0.12789       -0.60779        0.06943
C         -0.06409        0.84969        0.06525
N         -1.25813        1.48270        0.01450
C         -2.44021        0.84673        0.04688
N         -2.74198        1.90430       -0.09906
H         -3.70379        1.65586       -0.33275
H         -2.67774        2.91253       -0.23968
N          0.90392        1.72075        0.05800
C          2.09293        1.21052        0.03463
C          3.32102        1.93374        0.02459
C          4.35086        1.04876       -0.01256
C          3.84529       -0.17808       -0.02032
C          2.48096       -0.10295        0.01616
C          1.43186       -1.09727        0.03654
C          1.89587       -2.45444        0.00582
N          2.00475       -2.99615       -0.99457
H          4.43051       -1.09502       -0.06313
H          5.40815        1.30322       -0.04488
H          3.38991        3.01737        0.04298
H         -2.14124       -2.22189        0.10010
