25
Coordinates from ORCA-job ./opt_b97-3c_parallel
N         -5.03752       -1.07259       -0.40911
C         -4.27337       -0.24448       -0.22667
C         -3.29581        0.78012       -0.04303
C         -1.90841        0.51073        0.03730
C         -1.25569        1.75187        0.12987
N         -2.30915        2.65316        0.11066
C         -3.52894        2.12480        0.01328
H         -4.47796        2.68371       -0.01593
N          0.03731        1.70193        0.18720
C          0.78269        0.62905        0.10193
C          2.16785        0.84056        0.05166
C          2.66732        2.18985        0.08161
N          3.09552        3.24766        0.09063
C          3.21289       -0.15376       -0.06671
N          3.14777       -1.53564       -0.06241
C          2.01997       -2.33158       -0.00292
C          0.69270       -1.97304        0.00658
C          0.21678       -3.32450       -0.02555
N         -0.61561       -3.91144        0.48946
C          0.09948       -0.66156        0.03443
N         -1.25953       -0.71779       -0.00059
H          2.73522       -3.17106       -0.01779
N          4.31537       -0.26348       -0.15192
H          4.72210        0.67067       -0.24736
H          5.11381       -0.89534       -0.25063
