27
Coordinates from ORCA-job ./opt_b97-3c_parallel
N         -5.72596       -0.85322       -0.02021
C         -4.62497       -0.54531       -0.01416
C         -3.23944       -0.13519       -0.00618
C         -2.35273       -1.26024       -0.00091
N         -1.25898       -1.23483        0.00595
C         -0.17314       -0.44474        0.01229
C         -0.29321        0.97046        0.01016
N          0.80646        1.76879        0.01386
C          1.99762        1.15495        0.01991
C          3.27948        1.72770        0.02314
C          4.08719        0.52909        0.02832
N          5.44741        0.62636        0.02801
H          5.89958        1.53408        0.03823
H          6.02302       -0.20799        0.04727
N          3.54542       -0.46322        0.02971
C          2.22044       -0.18053        0.02354
C          1.11466       -1.02921        0.01992
C          1.30936       -2.46289        0.02428
N          1.45634       -3.59724        0.03763
H          3.59826        2.76480        0.01709
C         -1.51184        1.67262        0.00323
C         -2.83665        1.20850       -0.00472
N         -3.80216        2.18227       -0.01536
H         -4.78359        1.92654        0.01837
H         -3.53970        3.16102        0.02713
H         -1.41078        2.75742        0.00323
H         -2.59275       -2.31677       -0.03904
