24
Coordinates from ORCA-job ./opt_b97-3c_parallel
N         -1.88588       -3.07942       -1.16535
C         -2.27526       -2.46935       -0.27699
C         -2.01358       -1.06755       -0.12434
C         -3.38503       -0.89512        0.02925
N         -4.10219        0.26541        0.27150
C         -3.42427        1.45050        0.24767
C         -2.26478        2.10291        0.02920
C         -1.12985        1.35128        0.00495
N         -0.09661        2.21906       -0.03865
C          1.17875        1.69159       -0.08267
N          2.22347        2.57118       -0.18942
C          3.33295        1.77494       -0.14150
C          2.92492        0.41332        0.01688
C          3.90611       -0.60971        0.18043
N          4.69459       -1.41911        0.34493
C          1.47841        0.29256       -0.00125
C          0.39323       -0.65646       -0.06654
C          0.96452       -1.97101       -0.05895
N          0.99452       -2.41495        0.99418
C         -0.93882       -0.08928       -0.05622
H          4.38105        2.11127       -0.17747
H         -2.28360        3.15307       -0.26299
H         -4.32889        2.03156        0.48981
H         -4.45811       -1.13837        0.10267
