25
Coordinates from ORCA-job ./opt_b97-3c_parallel
N         -6.07832        0.10768        0.32577
C         -4.94313        0.17268        0.20891
C         -3.52025        0.22692        0.09182
C         -2.95799        1.48525        0.02388
N         -1.72707        2.04089       -0.06329
C         -0.55943        1.34655       -0.07983
N          0.55531        2.12597       -0.10858
C          1.78513        1.57528       -0.09566
N          2.98317        2.19422       -0.11935
C          3.75514        1.37608       -0.08542
C          3.34031       -0.00659       -0.03134
C          4.30132       -1.05935        0.05002
N          5.07253       -1.89665        0.14837
C          1.94575        0.22574       -0.04848
C          0.86679       -0.64581       -0.03730
C          1.08776       -2.07450       -0.00573
N          1.27641       -3.20126        0.01992
C         -0.41545       -0.06701       -0.06122
N         -1.44410       -0.86636       -0.08396
C         -2.71908       -0.94872        0.02658
N         -2.61507       -2.04609        0.01819
H         -2.17061       -2.76673       -0.54827
H         -3.59734       -2.02353       -0.24908
H          4.77192        1.79652       -0.08758
H         -3.36689        2.50686        0.03397
