28
Coordinates from ORCA-job ./opt_b97-3c_parallel
N          3.65109        3.37239        0.15494
C          3.10846        2.38551        0.34922
C          2.58501        1.09429        0.03020
C          3.05078       -0.27185       -0.00561
N          4.39910       -0.45224       -0.14599
H          4.79254       -1.37362        0.01136
H          5.01077        0.35239       -0.05460
C          2.45743       -1.58397        0.06798
C          1.20448       -0.88306        0.05284
C          1.28017        0.49745        0.03102
C          0.11794        1.26193        0.00706
C         -1.13417        0.64731        0.00853
N         -2.23604        1.43067       -0.01885
C         -3.33887        1.37066       -0.03191
N         -3.93151        2.58576       -0.20597
H         -4.94081        2.67204       -0.16670
H         -3.37178        3.43059       -0.18670
C         -4.08241        0.13847        0.03802
C         -3.52558       -1.19095        0.03684
N         -2.43435       -1.36789        0.04337
C         -1.22192       -0.76173        0.03588
C         -0.03968       -1.52485        0.05584
C         -0.09419       -2.97148        0.07739
N         -0.12068       -4.11409        0.08882
H         -4.00804       -2.12780        0.28788
H         -5.15740        0.00315        0.12700
H          0.18482        2.34787       -0.01383
H          2.72132       -2.42582       -0.56599
