25
Coordinates from ORCA-job ./opt_b97-3c_parallel
N          4.96376        1.75163        0.36978
C          4.13035        1.04962        0.02362
C          3.10930        0.14179       -0.39279
C          1.71896        0.09025       -0.17229
C          1.42046       -1.23832       -0.04348
N          2.55042       -1.95586       -0.18785
C          3.59002       -1.13925       -0.40208
H          4.51570       -1.72384       -0.51048
N          0.15427       -1.64064        0.19754
C         -0.76423       -0.64706        0.30769
N         -1.98186       -1.06582        0.53389
C         -3.11783       -0.72272        0.01462
N         -3.74715       -1.52980        0.42129
H         -4.74190       -1.53170        0.63562
H         -3.42540       -2.49368        0.48842
C         -3.20266        0.43395       -0.70562
C         -2.73502        1.60199       -0.17054
N         -3.48135        2.41146       -0.09236
H         -4.47832        2.45349        0.11118
H         -3.15838        3.37243       -0.18860
C         -1.39401        1.79994        0.32724
C         -0.43933        0.72160        0.16154
N          0.83869        1.10765       -0.08075
H         -1.12885        2.75697        0.76788
H         -3.53873        0.40018       -1.74028
