27
Coordinates from ORCA-job ./opt_b97-3c_parallel
N         -6.25814       -0.25064       -0.18545
C         -5.11719       -0.28800       -0.13905
C         -3.69227       -0.37597       -0.09817
C         -3.14732       -1.64511       -0.19140
N         -1.88532       -2.13650       -0.15201
C         -0.76028       -1.30917       -0.05927
N          0.42607       -2.03463        0.00805
C          1.61802       -1.33439        0.05526
N          2.81925       -1.98678        0.21868
C          3.77934       -1.00637        0.15168
N          4.79631       -1.43592        0.26340
H          5.55431       -0.77394        0.07547
H          5.26784       -2.27043        0.62057
C          3.11613        0.24532       -0.08788
C          3.85519        1.44542       -0.31067
N          4.47725        2.38103       -0.50908
C          1.67471        0.08772       -0.09606
C          0.46541        0.86003        0.00777
C          0.61887        2.28372        0.02524
N          0.78179        3.41327        0.02250
C         -0.80056        0.14448        0.00395
N         -1.73771        0.73235        0.04897
C         -2.84127        0.77151        0.05790
N         -2.98557        1.85794        0.19860
H         -2.67893        2.76345        0.55431
H         -4.00153        1.85309        0.29336
H         -3.80039       -2.52644       -0.29745
