27
Coordinates from ORCA-job ./opt_b97-3c_parallel
N         -4.04537       -2.94628       -0.15542
C         -3.42614       -1.98607       -0.09744
C         -2.63041       -0.78440       -0.01925
C         -3.51770        0.30982        0.27285
N         -3.50085        1.40937        0.20118
C         -2.60031        1.94350       -0.14470
C         -1.17454        1.75417       -0.04624
C         -0.67585        3.04479       -0.46839
N         -0.29754        4.06300       -0.82465
C         -0.48683        0.51250        0.00132
C          0.93674        0.45696        0.09545
C          1.74414        1.61131        0.42439
N          2.38002        2.51780        0.70824
C          1.57834       -0.78421       -0.02682
C          0.84682       -1.93387       -0.21043
C         -0.53238       -1.92924       -0.22323
C         -1.22147       -0.71352       -0.07720
H         -1.04748       -2.88067       -0.32690
C          1.69597       -3.02268       -0.31254
C          2.98870       -2.54020       -0.18018
C          2.92660       -1.16346        0.00380
C          4.09861       -0.34528        0.18992
N          5.03864        0.28572        0.34461
H          3.89619       -3.13918       -0.20613
H          1.40576       -4.06095       -0.45499
H         -3.17836        2.86120       -0.07963
H         -4.30990        0.35248        1.01360
