26
Coordinates from ORCA-job ./opt_b97-3c_parallel
N          4.93194        0.33301       -0.09274
C          3.57839        0.15936       -0.17122
C          2.92142        1.44578       -0.19164
C          1.72195        0.66746       -0.14444
C          1.86239       -0.70384       -0.16080
C          3.19184       -1.23134       -0.22465
H          3.57118       -2.02451        0.41184
C          0.72430       -1.50024       -0.10912
C         -0.53334       -0.89055       -0.04098
C         -1.63960       -1.74704        0.01479
C         -3.00888       -1.31548        0.09253
N         -3.57551       -0.36806        0.10632
C         -3.11815        0.63523        0.07734
N         -4.26910        1.37075        0.04184
H         -5.16218        0.90390       -0.06906
H         -4.22553        2.36832       -0.13219
C         -1.80942        1.23416        0.03373
C         -0.60335        0.52661       -0.02936
N          0.52326        1.28273       -0.07976
H         -1.80456        2.32219        0.04543
H         -3.90888       -1.91886        0.06358
H         -1.51880       -2.82776        0.00559
H          0.81934       -2.58374       -0.11962
H          3.13494        2.28533        0.46225
H          5.53911       -0.46340       -0.25170
H          5.31410        1.26251       -0.22942
