29
Coordinates from ORCA-job ./opt_b97-3c_parallel
N          5.20579        0.39400        0.36458
C          4.10208        0.13262        0.22136
C          2.70325       -0.19304        0.05685
C          2.55760       -1.57327       -0.32058
N          1.79771       -2.35363       -0.14401
C          0.79032       -2.07475        0.20874
C         -0.15926       -0.99062        0.10843
C         -1.52192       -1.34201        0.09330
N         -1.94385       -2.64375        0.17717
H         -1.27467       -3.35249        0.45569
H         -2.92496       -2.82143        0.36088
C         -2.46402       -0.32711        0.00703
C         -2.09617        0.96354       -0.07812
C         -3.27761        1.75639       -0.19762
N         -3.67076        0.69776       -0.12352
C         -3.88739       -0.40999       -0.04037
H         -4.54337       -1.09532        0.48238
H         -3.41831        2.69014       -0.72827
C         -0.75954        1.36302       -0.06067
N         -0.53163        2.70160       -0.25316
H         -1.30662        3.27633       -0.56337
H          0.40032        2.98397       -0.53806
C          0.26124        0.37371        0.06773
C          1.64350        0.72523        0.18414
N          2.02306        2.00846        0.49489
H          2.98207        2.16615        0.78644
H          1.31410        2.63277        0.86492
H          0.64206       -3.13045        0.00344
H          3.15706       -2.14565       -1.02019
