37
Coordinates from ORCA-job ./opt_b97-3c_parallel
N         -4.12315       -2.54804        1.63276
C         -3.36976       -1.87848        1.09423
C         -2.40180       -1.00691        0.43313
C         -2.89966        0.19117       -0.09923
N         -4.27265        0.28950       -0.23732
H         -4.68633        1.18556       -0.47223
H         -4.86642       -0.42866        0.16496
C         -2.13740        1.31482       -0.45971
C         -2.85793        2.40433       -1.11481
N         -3.41321        3.25154       -1.64513
C         -0.79954        1.55459       -0.07916
N         -0.42356        2.88087       -0.12356
H          0.56260        3.11731       -0.09340
H         -1.08141        3.57887       -0.45428
C          0.21705        0.58257        0.13510
C          0.05217       -0.79616       -0.18152
C         -1.10883       -1.51792        0.20127
N         -0.94216       -2.85175        0.51201
H         -1.71593       -3.39002        0.88813
H         -0.01890       -3.27017        0.46663
C          1.19742       -1.51784       -0.63796
N          1.13482       -2.72929       -1.28305
H          0.22875       -3.06049       -1.59718
H          1.95803       -3.06076       -1.77153
C          2.45699       -0.95708       -0.48554
C          2.62115        0.21786        0.13254
C          4.01804        0.47079        0.27805
N          4.86146        1.46614        0.67442
H          5.86168        1.34479        0.56506
H          4.50648        2.41517        0.71236
N          3.98106       -0.55448       -0.20088
C          3.74489       -1.51500       -0.75165
H          4.00057       -2.39480       -1.32895
C          1.53395        1.01017        0.48547
N          1.81443        2.12993        1.22893
H          2.74103        2.20029        1.63671
H          1.04908        2.56038        1.73707
