28
Coordinates from ORCA-job ./opt_b97-3c_parallel
N         -3.92955       -2.30720        0.02820
C         -3.01326       -1.29250        0.02118
C         -3.51684        0.00659        0.09794
C         -2.71683        1.19323        0.07896
N         -1.62916        1.29540        0.09121
C         -0.50362        0.56848        0.04723
C          0.71486        1.26442        0.08823
C          1.91394        0.56455        0.03815
N          3.17710        1.04504        0.07602
C          3.85363        0.14266        0.01707
N          5.21043        0.27075        0.04933
H          5.79390       -0.55337        0.13856
H          5.62129        1.17295        0.26174
C          3.23927       -1.16215       -0.08375
C          1.88468       -0.78743       -0.05969
C          0.71418       -1.52740       -0.10062
C         -0.51144       -0.84570       -0.03979
C         -1.66048       -1.65773       -0.05605
H         -1.47886       -2.72920       -0.12080
H          0.76002       -2.61166       -0.16983
H          3.71323       -2.13641       -0.14405
H          0.72586        2.34976        0.16119
N         -3.23797        2.44463       -0.07048
H         -4.22306        2.55943       -0.28006
H         -2.61753        3.22737       -0.24443
H         -4.58930        0.17904        0.16204
H         -4.88904       -2.09310        0.27713
H         -3.60250       -3.25629        0.17102
