33
Coordinates from ORCA-job ./opt_b97-3c_parallel
N         -4.82409       -1.04281        0.42664
C         -3.58757       -0.61418        0.03371
N         -3.06245       -1.58375        0.00661
C         -1.97466       -1.62512       -0.17413
C         -0.77912       -0.82850       -0.07977
C          0.41619       -1.53228        0.02326
C          1.71052       -0.91124        0.08156
C          1.74574        0.52368        0.09299
C          3.12093        0.94740        0.11324
N          3.84638        2.10472        0.08003
H          4.84656        2.04789       -0.07550
H          3.37240        2.96239       -0.18124
C          3.86660       -0.27853        0.17726
C          3.04025       -1.44756        0.07723
N          3.48905       -2.72957       -0.05701
H          2.82612       -3.49267        0.02183
H          4.47102       -2.92515        0.10342
H          4.94721       -0.32047        0.27334
C          0.46747        1.20466        0.04137
N          0.69155        2.53420        0.28375
H          1.61043        2.79888        0.62153
H         -0.09625        3.09099        0.59725
C         -0.79270        0.57940       -0.09344
C         -2.00074        1.32318       -0.23411
N         -1.99219        2.67295       -0.46700
H         -1.11715        3.09057       -0.76599
H         -2.84939        3.10830       -0.78869
C         -3.28775        0.77127       -0.21164
H         -4.16492        1.39929       -0.35383
H          0.42227       -2.61968        0.03706
H         -2.08836       -2.69322       -0.02260
H         -5.02045       -2.03562        0.48399
H         -5.60446       -0.39621        0.43905
