32
Coordinates from ORCA-job ./opt_b97-3c_parallel
N         -6.09069       -0.65551        0.01244
C         -4.95306       -0.54261       -0.01896
C         -3.50263       -0.39780       -0.03953
C         -2.75026       -1.58386       -0.04055
N         -3.41242       -2.78967       -0.04197
H         -4.41671       -2.79857        0.10614
H         -2.89266       -3.64162        0.13694
C         -1.36469       -1.72169       -0.04445
C         -0.33328       -0.77860       -0.03499
C          0.94015       -1.37212       -0.02739
C          2.06447       -0.57251       -0.01217
C          2.00169        0.77813       -0.00255
N          3.23637        1.33138        0.01784
C          3.93887        0.45253        0.02104
N          5.27893        0.71029        0.04355
H          5.95084       -0.04981        0.03533
H          5.61873        1.66554        0.04486
C          3.43650       -0.90460        0.00321
C          4.06155       -2.18989        0.00209
N          4.71363       -3.12851        0.00758
C          0.75662        1.41068       -0.01302
C          0.78029        2.86030        0.00374
N          0.78404        4.00343        0.02013
C         -0.44429        0.63587       -0.03183
C         -1.66373        1.33900       -0.05068
C         -2.99411        0.91338       -0.05481
N         -3.88867        1.95927       -0.07614
H         -4.87619        1.76896        0.06157
H         -3.55351        2.90479        0.07247
H         -1.59651        2.42211       -0.06369
H          1.06702       -2.45306       -0.03103
H         -1.03432       -2.76030       -0.05060
