23
Coordinates from ORCA-job ./opt_b97-3c_parallel
N          4.51524        1.81602       -0.83178
C          4.14778        0.92828       -0.21482
C          3.06091        0.02035       -0.02590
C          1.65302        0.06515        0.02835
C          1.22998       -1.21468        0.22475
N          2.28839       -2.04821        0.30248
C          3.20370       -1.40352        0.17549
H          4.10256       -2.00634        0.22531
N         -0.08605       -1.50456        0.31355
C         -1.00122       -0.50134        0.21851
N         -2.31956       -0.79950        0.27714
C         -3.26465       -0.22154        0.21222
N         -4.26892       -0.96255       -0.33449
H         -5.13763       -0.52092       -0.61226
H         -4.11356       -1.93532       -0.57329
N         -3.50073        0.86464        0.22045
C         -2.91409        1.80551        0.13793
C         -1.48161        1.92808       -0.01353
C         -0.58578        0.84821        0.04542
C          0.77753        1.13366       -0.06460
H          1.14342        2.14758       -0.20823
H         -1.12571        2.94724       -0.14455
H         -3.58663        2.42689        0.71758
