23
Coordinates from ORCA-job ./opt_b97-3c_parallel
N         -2.05408       -3.43394        0.27100
C         -2.07359       -2.29337        0.20309
C         -2.05441       -0.86020        0.12001
C         -3.36734       -0.24291        0.04347
N         -3.68661        1.05288       -0.12049
C         -2.81617        2.05510       -0.10944
N         -1.56215        2.03933        0.14936
C         -0.60014        1.19548        0.09106
C          0.73680        1.73764        0.06742
C          1.79942        0.78660        0.03785
N          3.09490        1.06670        0.02868
C          3.62442       -0.22104        0.01579
N          4.73007       -0.19020        0.03432
H          5.33879       -1.00113       -0.07842
H          5.34205        0.58625        0.28572
C          2.77625       -1.31079        0.01141
C          1.61448       -0.60179        0.03856
N          0.34115       -1.00964        0.06799
C         -0.78578       -0.25375        0.08772
H          2.90697       -2.12574       -0.69834
H          0.92511        2.80725        0.08065
H         -3.47085        2.92334       -0.28237
H         -4.34732       -0.74346        0.03551
