25
Coordinates from ORCA-job ./opt_b97-3c_parallel
N          4.62422        1.98344        0.93707
C          4.06811        1.11224        0.45449
C          3.32797        0.04585       -0.14479
C          1.91200        0.09690       -0.11502
C          1.58963       -1.23883       -0.23008
N          2.71244       -1.96622       -0.32646
C          3.81402       -1.22182       -0.28061
H          4.83241       -1.63676       -0.34138
N          0.32244       -1.70214       -0.23073
C         -0.68791       -0.81232       -0.13556
C         -2.04145       -1.43666       -0.13508
C         -3.26116       -0.84380        0.01536
N         -4.18856       -1.37946        0.27884
H         -5.04994       -1.20771        0.79564
H         -3.89573       -2.32371        0.53166
N         -3.82037        0.42248        0.02546
C         -2.87327        1.42608       -0.07213
N         -3.25162        2.45985       -0.12163
H         -4.24974        2.54103       -0.31271
H         -2.82506        3.31957       -0.46497
N         -1.49323        1.44209       -0.06769
C         -0.47408        0.56970       -0.05276
C          0.87148        1.08695        0.02397
H          1.09000        2.11025        0.31480
H         -1.97801       -2.51506       -0.28218
