22
Coordinates from ORCA-job ./opt_b97-3c_parallel
N          4.50658        0.07819        0.06560
C          3.42098       -0.13325        0.06254
N          2.74095        1.08240        0.01722
C          1.45278        0.64445        0.03236
C          1.46403       -0.75155        0.08714
C          2.70376       -1.31726        0.10356
H          2.94383       -2.14273       -0.56387
C          0.28044       -1.44338        0.11619
C         -0.92668       -0.77068        0.07971
N         -2.04476       -1.60208        0.10651
C         -3.29806       -1.02591        0.04457
N         -4.11669        0.07875       -0.04323
C         -3.37975        1.24254       -0.08481
N         -2.09361        1.37516       -0.03205
C         -0.99357        0.69367        0.01259
C          0.25368        1.42187       -0.00354
H          0.27946        2.50682       -0.04758
H         -4.11984        2.05217       -0.17234
H         -4.10131       -1.77789        0.07087
H          0.29420       -2.52946        0.16195
H          5.25414       -0.60363       -0.06230
H          4.96780        0.97312        0.22875
