29
Coordinates from ORCA-job ./opt_b97-3c_parallel
N         -3.45110       -3.39633        0.00006
C         -3.18554       -2.28474       -0.00153
C         -2.83224       -0.88355       -0.00181
C         -4.04143       -0.10170        0.00037
N         -4.35437        0.95485        0.00005
C         -3.64925        1.80031       -0.00048
C         -2.22804        2.01011        0.00004
C         -1.22286        1.02154       -0.00054
C          0.12836        1.44190        0.00073
C          0.47546        2.84642        0.00520
N          0.73633        3.96017        0.00712
C          1.16260        0.49514       -0.00122
C          0.87012       -0.84971       -0.00220
C          1.98651       -1.75418       -0.00350
C          2.08108       -3.17958        0.00612
N          2.07087       -4.32222       -0.00609
C          2.85783       -0.59949       -0.00203
N          4.17755       -0.97677        0.00429
H          4.90890       -0.27135       -0.00315
H          4.43573       -1.95816       -0.00497
C          2.56570        0.81908       -0.00324
C          3.51638        1.88455       -0.06911
N          4.33602        2.67651        0.01466
C         -0.45089       -1.28318       -0.00279
C         -1.51775       -0.36892       -0.00202
H         -0.63349       -2.35581       -0.00325
H         -2.04518        3.08155        0.00048
H         -4.43226        2.55188       -0.00058
H         -5.07161       -0.44387        0.00082
