27
Coordinates from ORCA-job ./opt_b97-3c_parallel
N         -5.47998       -1.51627       -0.15281
C         -4.39962       -1.15602       -0.07646
C         -3.01955       -0.74683        0.01405
C         -2.16165       -1.88732        0.12576
N         -0.82803       -1.94037        0.12528
C          0.11282       -0.99484        0.10891
N          1.25244       -1.63119        0.08983
C          2.40505       -1.03256        0.08549
C          2.39199        0.37085        0.18440
N          3.67138        0.85336        0.16747
C          4.45311       -0.29289        0.05357
N          5.51825        0.01096        0.01842
H          5.94009        0.91683        0.23605
H          6.30687       -0.58158       -0.25178
C          3.70240       -1.45324        0.00110
H          3.98130       -2.27218       -0.66046
C          1.22345        1.10191        0.24331
C         -0.02227        0.45108        0.18242
C         -1.24122        1.14074        0.15840
C         -1.12800        2.58418        0.23574
N         -0.86964        3.53622       -0.34103
C         -2.59543        0.58922        0.01620
N         -3.43385        1.31849       -0.08650
H         -4.41749        1.10119       -0.25478
H         -3.33849        2.31239       -0.29899
H          1.32389        2.18063        0.31000
H         -2.49920       -2.93580        0.14463
