32
Coordinates from ORCA-job ./opt_b97-3c_parallel
N         -5.63886       -0.73358       -0.24272
C         -4.55263       -0.38645       -0.15539
C         -3.17814        0.04790       -0.06159
C         -3.10259        1.45049        0.25076
N         -2.35295        2.25768        0.18750
C         -1.30302        2.05444       -0.08331
C         -0.33205        0.98649       -0.09362
C          1.02577        1.32716       -0.11437
N          1.45147        2.62686       -0.17684
H          2.42271        2.79251       -0.41609
H          0.77780        3.33937       -0.43396
C          2.10018        0.36286       -0.08207
C          1.71522       -1.01962       -0.05364
C          2.87231       -1.85331        0.09565
N          2.91801       -3.17151        0.44676
H          2.06468       -3.61433        0.76945
H          3.80027       -3.55561        0.76678
C          3.95327       -0.92118       -0.05635
C          3.53360        0.45261       -0.02526
N          4.48629        1.43132       -0.01817
H          4.19919        2.38681        0.16235
H          5.44800        1.17619        0.17669
H          4.98779       -1.22810       -0.17395
C          0.30816       -1.31714       -0.14008
C         -0.71962       -0.36561       -0.13179
C         -2.06704       -0.80381       -0.19257
N         -2.32758       -2.13671       -0.40238
H         -3.27638       -2.40544       -0.64148
H         -1.57592       -2.72452       -0.74392
H          0.13585       -2.38968       -0.16291
H         -1.17486        3.08039        0.24632
H         -3.69723        2.00970        0.96600
