22
Coordinates from ORCA-job ./opt_b97-3c_parallel
N          4.83938       -0.01396        0.07522
C          3.50068        0.01358        0.02221
C          2.71870       -1.06958        0.01899
C          1.40223       -0.70951       -0.00716
C          1.34793        0.64697       -0.03383
C          2.68808        1.10839       -0.01434
H          2.98030        2.15420       -0.01413
N          0.20893        1.42210       -0.05506
C         -0.98402        0.70701       -0.03871
N         -2.04236        1.61086       -0.06056
C         -3.33199        1.13862       -0.02970
N         -4.17341        0.06452        0.02207
C         -3.38721       -1.05160        0.05106
N         -2.12502       -1.59359        0.04920
C         -1.00583       -0.76517        0.00542
C          0.18788       -1.46723        0.01524
H          0.22510       -2.55292        0.04883
H         -4.09512       -1.89447        0.09911
H         -4.08356        1.94312       -0.05305
H          3.07888       -2.09645        0.05026
H          5.36134       -0.80894       -0.29177
H          5.38844        0.82950       -0.08617
