22
Coordinates from ORCA-job ./opt_b97-3c_parallel
N          2.95068        2.71361        0.29533
C          2.83906        1.57373        0.29236
C          2.12102        0.74738        0.11267
C          3.08612       -0.17806       -0.18518
N          3.20061       -1.51483       -0.22212
C          2.11847       -2.25077        0.06677
N          0.91124       -1.86431        0.33274
C          0.17340       -0.80362        0.21057
C         -1.20098       -0.94529        0.15739
C         -1.94106       -2.17611        0.20242
N         -2.57165       -2.77249       -0.53861
C         -2.00282        0.24667        0.05046
C         -1.37767        1.51365        0.01124
N         -2.43147        2.34452       -0.04573
C         -3.61152        1.72487       -0.05180
C         -3.33950        0.42396       -0.00290
H         -4.08748       -0.36640       -0.01179
H         -4.38612        2.50611       -0.10246
N         -0.04085        1.65160        0.02591
C          0.76389        0.51747        0.11685
H          2.27800       -3.34057        0.05939
H          4.08880       -0.51863       -0.49243
