30
Coordinates from ORCA-job ./opt_b97-3c_parallel
N         -0.33044       -2.95652       -0.49836
C         -0.29813       -1.67258       -0.02599
C         -1.62778       -1.12584       -0.07724
C         -1.70793        0.27908       -0.17414
C         -3.03512        0.61874       -0.03140
N         -3.70838        1.49045        0.04418
H         -4.46005        2.15842       -0.11626
H         -3.38648        1.62433        1.00099
C         -3.71000       -0.57451        0.10840
C         -2.87819       -1.61558        0.09425
H         -3.15568       -2.66268        0.18371
H         -4.78961       -0.67495        0.22064
C         -0.53974        1.13113       -0.21253
N         -0.79209        2.47605       -0.14366
H         -0.05961        3.08568        0.20452
H         -1.75336        2.77006       -0.00513
C          0.77266        0.52620       -0.05814
C          1.89263        1.45568       -0.10786
N          3.17991        1.08833        0.06402
C          3.54872       -0.17523        0.32325
N          3.33764       -1.43241        0.53631
C          2.06195       -1.51686        0.34626
C          0.88362       -0.85016        0.10363
H          2.32117       -2.57603        0.49224
H          4.61391        0.09666        0.37362
N          2.37618        2.44250       -0.21181
H          3.02091        2.79301       -0.91839
H          1.46585        2.36696       -0.65973
H         -1.21709       -3.44698       -0.52914
H          0.52434       -3.50156       -0.50163
