24
Coordinates from ORCA-job ./opt_b97-3c_parallel
N         -4.70482       -1.67181       -1.19818
C         -3.70625       -1.24874       -0.83701
C         -2.47311       -0.69404       -0.35376
C         -1.83467       -1.70432        0.33219
N         -0.60741       -1.93627        0.83149
C          0.39342       -1.08723        0.53242
N          1.64012       -1.62012        0.52080
C          2.68477       -0.86859        0.11024
N          3.96168       -1.26529        0.03324
C          4.10647       -0.22292       -0.33653
C          3.76469        1.05126       -0.72137
C          2.49621        0.42990       -0.29890
N          1.28108        1.01176       -0.24911
C          0.22880        0.27482        0.19917
C         -0.96085        1.04980        0.49546
C         -0.78003        2.34944        1.08732
N         -0.66828        3.39028        1.54629
C         -2.14923        0.70963       -0.24162
N         -2.95715        1.42757       -0.49411
H         -2.86039        2.41351       -0.25676
H         -3.93134        1.17814       -0.33110
H          4.51868        1.74882       -1.07723
H          5.19112       -0.28849       -0.15481
H         -1.65890       -2.71542        0.72973
