28
Coordinates from ORCA-job ./opt_b97-3c_parallel
N          2.41795        4.21838       -0.01686
C          2.33630        3.07853       -0.02740
C          2.21734        1.63791       -0.04938
C          3.52499        1.09298       -0.30028
N          4.02594        0.11892       -0.17751
C          3.49516       -0.76086        0.22242
C          2.15714       -1.28436        0.10211
C          2.31381       -2.62011        0.63475
N          2.44562       -3.66467        1.08087
C          0.96202       -0.52753       -0.01685
C          1.01506        0.90230        0.01256
C         -0.17790        1.63740        0.11153
C         -1.39077        0.97710        0.09112
C         -1.47187       -0.38733       -0.06193
C         -2.83426       -0.71190       -0.12030
C         -3.45637       -2.00077       -0.29480
N         -3.96735       -3.01182       -0.44321
C         -3.56418        0.46166        0.02443
C         -2.66844        1.51097        0.15713
C         -3.02000        2.89592        0.33155
N         -3.29175        3.99512        0.48483
H         -4.64890        0.54359        0.02796
C         -0.30842       -1.16837       -0.12854
C         -0.44538       -2.57827       -0.42152
N         -0.55232       -3.68714       -0.67626
H         -0.18035        2.72321        0.18355
H          4.44302       -1.29178        0.23440
H          4.24990        1.40067       -1.04715
