27
Coordinates from ORCA-job ./opt_b97-3c_parallel
N         -5.04114       -0.62568       -0.39024
C         -3.96218       -0.27589       -0.24973
C         -2.59317        0.15884       -0.08559
C         -2.55523        1.55090        0.27780
N         -1.84975        2.39261        0.17161
C         -0.82433        2.19632       -0.18161
C          0.18571        1.17465       -0.08133
C          1.50136        1.64472       -0.02617
C          2.53253        0.72444        0.04222
C          2.28424       -0.59671        0.08157
C          3.53560       -1.27307        0.19928
N          3.82011       -0.17714        0.16330
C          3.93677        0.94869        0.11776
H          4.53113        1.69934       -0.38951
H          3.72829       -2.32796        0.35160
C          0.98788       -1.11650        0.03733
N          0.87753       -2.47436        0.18982
H         -0.02753       -2.84286        0.46215
H          1.69649       -2.98343        0.50166
C         -0.11746       -0.21896       -0.07762
C         -1.46548       -0.67698       -0.20735
N         -1.74139       -1.98624       -0.51790
H         -2.68406       -2.21883       -0.81216
H         -0.98463       -2.55103       -0.88889
H          1.71856        2.71027       -0.04330
H         -0.69345        3.27204       -0.23937
H         -3.27504        2.11471        0.86110
