26
Coordinates from ORCA-job ./opt_b97-3c_parallel
N         -2.32749       -4.06268       -0.00003
C         -2.26433       -2.92181        0.00087
C         -2.16597       -1.48046        0.00117
C         -3.48643       -0.90768       -0.00482
N         -3.97109        0.08264       -0.00186
C         -3.40522        1.02887        0.00615
C         -2.04311        1.49379        0.00216
C         -2.00315        2.93894        0.00499
N         -1.95856        4.08099        0.00850
C         -0.89551        0.67781        0.00131
N          0.30371        1.32863       -0.00045
C          1.43895        0.61068       -0.00002
C          1.43576       -0.75500        0.00350
C          2.73792       -1.17042        0.00578
C          3.21252       -2.52910        0.01203
N          3.57669       -3.61205        0.01871
C          3.52248       -0.02733        0.00329
C          2.75728        1.21329       -0.00109
C          3.29168        2.53704       -0.01324
N          3.57016        3.64534       -0.01759
H          4.60711       -0.10642        0.00516
C          0.25023       -1.47154        0.00473
C         -0.96030       -0.75045        0.00240
H          0.28507       -2.55799        0.00738
H         -4.31730        1.61758        0.01372
H         -4.44522       -1.41667       -0.02125
