24
Coordinates from ORCA-job ./opt_b97-3c_parallel
N          4.01161        1.20305        0.02461
C          2.82197        0.53369       -0.02585
N          3.20780       -0.49930       -0.02357
C          2.57179       -1.40203       -0.03313
C          1.17711       -1.75246       -0.03878
C          0.11569       -0.84117       -0.04536
N         -1.13090       -1.39063       -0.05336
C         -2.19134       -0.55942       -0.05634
C         -2.06218        0.80296       -0.04891
C         -3.31405        1.35264       -0.04050
C         -4.20826        0.29147       -0.04426
C         -3.56387       -1.01549       -0.06512
H         -3.94697       -1.92373        0.38811
H         -5.27854        0.48151       -0.03217
H         -3.56075        2.41138       -0.02687
C         -0.81665        1.40680       -0.04557
C          0.30711        0.57014       -0.04466
C          1.55218        1.21059       -0.04020
H          1.61712        2.29654       -0.04471
H         -0.72422        2.49038       -0.04135
H          0.99155       -2.82443       -0.03668
H          3.43101       -2.06139       -0.07040
H          4.87375        0.68873        0.16617
H          4.02186        2.20552        0.17271
