33
Coordinates from ORCA-job ./opt_b97-3c_parallel
N         -4.45444       -1.38411       -0.47580
C         -3.33895       -0.82618        0.08035
N         -2.67812       -1.70618        0.14808
C         -1.59569       -1.59214        0.33536
C         -0.51456       -0.64505        0.19785
C          0.78339       -1.15696        0.09148
N          1.05162       -2.49902        0.13676
H          2.01347       -2.78467        0.28228
H          0.32066       -3.12564        0.45442
C          1.96847       -0.34409       -0.02926
C          1.76784        1.07601       -0.08284
C          3.04544        1.72490       -0.18753
C          4.00321        0.65999       -0.12473
C          3.37629       -0.63117       -0.08693
N          4.25008       -1.68074       -0.08033
H          3.88825       -2.61626       -0.22735
H          5.22526       -1.50567       -0.29508
H          5.07671        0.81994       -0.09844
H          3.39626        2.67536       -0.58101
C          0.40642        1.55397        0.01714
N          0.42796        2.90255       -0.22607
H         -0.44425        3.34304       -0.49892
H          1.28543        3.30663       -0.58502
C         -0.73942        0.74684        0.19046
C         -2.03830        1.30883        0.36510
N         -2.21745        2.64282        0.61871
H         -3.11946        2.94519        0.96908
H         -1.40424        3.17721        0.90629
C         -3.23394        0.58072        0.35910
H         -4.18843        1.07181        0.53918
H         -1.62893       -2.63104        0.02415
H         -4.42683       -2.34390       -0.80181
H         -5.20308       -0.78826       -0.80928
