21
Coordinates from ORCA-job ./opt_b97-3c_parallel
N         -5.43014       -0.74121       -0.61761
C         -4.72287       -0.32880        0.18023
C         -3.62585       -0.21009        0.12823
C         -2.68296       -1.18534        0.31737
N         -1.36979       -1.47578        0.39439
C         -0.37992       -0.55930        0.26744
N          0.85821       -0.95589        0.35589
C          1.94685       -0.24706        0.25453
C          3.31262       -0.20623        0.25224
C          3.77554       -1.32267       -0.51302
N          4.09349       -2.21720       -1.14527
C          4.09047        0.91038        0.17388
N          2.96901        1.58855        0.05385
C          1.68574        1.08657        0.06366
N          0.44044        1.70624       -0.06406
C         -0.66569        0.85360        0.03040
N         -1.85142        1.37292       -0.08914
C         -3.10274        1.02580       -0.14078
H         -3.56497        1.78748       -0.79122
H          5.16202        1.16848        0.18303
H         -3.00076       -2.23011        0.47147
