28
Coordinates from ORCA-job ./opt_b97-3c_parallel
N         -3.28405       -3.22731        0.00164
C         -3.06636       -2.10503        0.00160
C         -2.76709       -0.69142        0.00141
C         -3.99153        0.06639        0.00218
N         -4.27934        1.13118        0.00199
C         -3.62550        2.01839        0.00188
C         -2.20606        2.24578       -0.00021
C         -1.21588        1.25399       -0.00079
C          0.10564        1.71775       -0.00200
C          1.17317        0.82286       -0.00298
C          0.93852       -0.53010       -0.00263
C          2.10035       -1.36957       -0.00434
C          2.22600       -2.79282       -0.00304
N          2.65748       -3.84868       -0.00402
C          2.92470       -0.17931       -0.00499
N          4.27427       -0.42920       -0.00390
H          4.62012       -1.38427       -0.00434
H          4.94011        0.33732       -0.00477
C          2.54983        1.21894       -0.00470
C          3.16801        2.50504        0.00880
N          3.85530        3.41625       -0.00372
C         -0.36677       -1.01740       -0.00094
C         -1.46837       -0.14211       -0.00008
H         -0.50921       -2.09483       -0.00057
H          0.30517        2.78777       -0.00220
H         -1.95381        3.30422        0.00010
H         -4.41747        2.76029        0.00254
H         -5.01282       -0.30197        0.00191
