25
Coordinates from ORCA-job ./opt_b97-3c_parallel
N         -2.08536       -3.42233       -0.55493
C         -2.03890       -2.30369       -0.32325
C         -2.00354       -0.88410       -0.05452
C         -3.38993       -0.49277       -0.10571
N         -4.02273        0.38450        0.10708
C         -3.60604        1.40121        0.18182
C         -2.33631        2.04816       -0.00371
C         -1.09002        1.40883       -0.05048
C          0.00115        2.28477       -0.13351
C          1.29251        1.78660       -0.14453
N          2.44331        2.48523       -0.20728
C          3.23521        1.68467       -0.15952
C          2.89004        0.28387       -0.04719
C          4.02827       -0.57646        0.01046
N          4.55940       -1.22134        0.79054
C          1.48509        0.44775       -0.05285
C          0.45010       -0.48086        0.02096
C          0.84404       -1.85946        0.20720
N          1.17860       -2.93964        0.36969
C         -0.89048       -0.00628       -0.01962
H          4.21077        2.15495       -0.20367
H         -0.15159        3.36219       -0.17938
H         -2.42653        3.13225       -0.03359
H         -4.45979        1.75126        0.75251
H         -4.28087       -1.11287       -0.06989
