22
Coordinates from ORCA-job ./opt_b97-3c_parallel
N          4.79684        1.43728        1.04376
C          4.08149        0.94399        0.29952
C          3.00659        0.03626        0.05513
C          1.60008        0.05093       -0.03107
C          1.21214       -1.23533       -0.25534
N          2.28544       -2.04975       -0.32782
C          3.17980       -1.38226       -0.16829
H          4.09077       -1.96760       -0.20175
N         -0.09867       -1.53214       -0.36703
C         -0.99518       -0.51399       -0.26006
N         -2.31805       -0.79041       -0.32467
C         -3.25222       -0.19728       -0.24745
N         -4.22651       -0.89224        0.40460
H         -4.10266       -1.87618        0.61375
H         -5.09413       -0.43807        0.66501
N         -3.47437        0.89135       -0.25233
C         -2.86366        1.81626       -0.16759
C         -1.43093        1.91047       -0.00139
C         -0.54233        0.82523       -0.06334
N          0.77867        1.11053        0.06337
H         -1.06325        2.92240        0.15237
H         -3.51896        2.46324       -0.73897
