25
Coordinates from ORCA-job ./opt_b97-3c_parallel
N         -5.03130       -0.80621       -1.17254
C         -3.94528       -0.72857       -0.82989
C         -2.58919       -0.67670       -0.37846
C         -1.84538       -1.88893       -0.20096
N         -0.55313       -1.92504        0.18588
C          0.39542       -0.96383        0.26250
N          1.52607       -1.53930        0.53635
C          2.57691       -0.82178        0.30748
C          2.64123        0.52817       -0.16612
N          1.46844        1.14802       -0.42903
C          0.30067        0.40421       -0.22585
C         -0.96269        1.05297       -0.45738
C         -1.08674        2.37781       -0.99011
N         -1.16601        3.44474       -1.39040
C         -2.14116        0.54978       -0.00693
N         -2.56303        0.97844        1.19868
H         -2.39868        1.94961        1.46697
H         -3.51365        0.76102        1.50014
C          3.94239        0.92355       -0.26426
C          4.73292       -0.08300        0.09640
C          3.95667       -1.14622        0.44224
H          4.32970       -2.11086        0.77273
H          5.82045       -0.05783        0.12121
H          4.28081        1.90790       -0.58158
H         -2.31710       -2.87212       -0.35269
