29
Coordinates from ORCA-job ./opt_b97-3c_parallel
N          5.54303        0.92722        0.37276
C          4.48589        0.52100        0.22291
C          3.14902        0.01277        0.05608
C          3.05566       -1.41188       -0.11503
N          2.27351       -2.18849       -0.16238
C          1.20892       -1.93233       -0.02958
C          0.25791       -0.84674       -0.02945
C         -1.11221       -1.16523       -0.02333
N         -1.55940       -2.46027       -0.02678
H         -0.90268       -3.19950       -0.24942
H         -2.54198       -2.62600       -0.21635
C         -2.02979       -0.11905       -0.00346
C         -1.63444        1.16943       -0.02107
C         -2.79645        1.99687       -0.01015
N         -3.22135        0.94712        0.00559
C         -3.45293       -0.15987        0.05831
N         -4.59551       -0.88236        0.23475
H         -4.52112       -1.84671        0.53877
H         -5.45782       -0.39292        0.44520
H         -2.95186        2.95357       -0.49332
C         -0.28783        1.52997       -0.02850
N          0.02957        2.86334       -0.05413
H          0.98046        3.13069       -0.28239
H         -0.70763        3.52925       -0.25640
C          0.68936        0.50741       -0.01084
C          2.05100        0.87797        0.05887
H          2.29859        1.93256        0.14726
H          1.03338       -2.99559        0.09888
H          3.75372       -2.07357       -0.61686
