21
Coordinates from ORCA-job ./opt_b97-3c_parallel
N         -2.21072       -3.13222       -0.02526
C         -2.23149       -1.98789       -0.06565
C         -1.78699       -0.97483       -0.04638
C         -2.96551       -0.28202       -0.01825
N         -3.43735        0.97420        0.01588
C         -2.57457        2.00443        0.03306
N         -1.21057        1.79475        0.02175
C         -0.15162        0.97609       -0.00372
N          1.11229        1.46860        0.00811
C          2.16173        0.61388       -0.01927
N          3.46083        0.93551       -0.00819
C          3.56064       -0.17862       -0.04064
C          3.22891       -1.51479       -0.09426
C          1.97601       -0.74301       -0.06360
C          0.69635       -1.28440       -0.07631
C         -0.39767       -0.41288       -0.04267
H          0.56031       -2.36256       -0.11056
H          3.99969       -2.28132       -0.12330
H          4.63085       -0.07189        0.19899
H         -2.59300        3.10471        0.05903
H         -4.06025       -0.16031       -0.00129
