35
Coordinates from ORCA-job ./opt_b97-3c_parallel
N          5.05412        0.14983        0.64774
C          3.72771        0.12893        0.31325
C          3.15062        1.34173       -0.00535
C          1.81916        1.63587       -0.26916
N          1.66110        2.94804       -0.64547
H          2.49020        3.45850       -0.92830
H          0.79281        3.20063       -1.10441
C          0.68242        0.79852       -0.14804
C         -0.53963        1.50943       -0.06067
C         -1.74491        0.84425       -0.01229
C         -1.79640       -0.48646       -0.07379
C         -3.16918       -0.87411       -0.00750
N         -4.01504       -1.93246       -0.18650
H         -3.66037       -2.75570       -0.65843
H         -5.01151       -1.75975       -0.23638
N         -3.22449        0.25099        0.10644
C         -3.05475        1.36772        0.18373
N         -3.62091        2.56783        0.49936
H         -4.57184        2.58237        0.85043
H         -3.01729        3.33844        0.76356
C         -0.64253       -1.26444       -0.09129
N         -0.88599       -2.61006        0.03084
H         -0.12630       -3.19596        0.35929
H         -1.82825       -2.89413        0.27568
C          0.65351       -0.63873       -0.11875
C          1.82125       -1.46046       -0.12287
N          1.76191       -2.80062       -0.41029
H          2.63296       -3.29055       -0.58061
H          0.93774       -3.13839       -0.89613
C          3.13718       -1.11265        0.18005
H          3.82999       -1.94593        0.30302
H         -0.59049        2.59148        0.01504
H          3.83980        2.18539       -0.03155
H          5.45161       -0.68309        1.06761
H          5.46712        1.04047        0.90164
