27
Coordinates from ORCA-job ./opt_b97-3c_parallel
N         -3.52440       -3.25110        0.47931
C         -3.23018       -2.15255        0.36350
C         -2.86116       -0.78008        0.17910
C         -3.98656        0.13789        0.13312
N         -3.99812        1.46449       -0.08714
C         -2.91245        2.21827       -0.21389
N         -1.67313        1.92339       -0.08860
C         -0.92198        0.88190       -0.06210
C          0.52473        1.06269       -0.11211
C          1.11517        2.36939       -0.19456
N          1.52109        3.37201        0.17547
C          1.36542       -0.04039       -0.06628
C          0.89782       -1.38015        0.01681
C          1.83140       -2.38183        0.03962
C          2.92147       -1.54396       -0.00436
N          3.79921       -2.21778        0.04229
H          4.56379       -1.56521        0.21000
H          4.22114       -3.13002       -0.12086
C          2.72894       -0.12163       -0.07467
C          3.87690        0.73609       -0.11773
N          4.75764        1.18081        0.46070
H          1.72846       -3.23487       -0.63318
C         -0.52623       -1.50384        0.05448
C         -1.45213       -0.39874        0.04560
H         -0.65204       -2.36657       -0.59778
H         -3.09600        3.28660       -0.40497
H         -5.06729       -0.05311        0.21074
