26
Coordinates from ORCA-job ./opt_b97-3c_parallel
N         -3.26987       -3.57298       -0.00105
C         -2.92301       -2.48530       -0.00176
C         -2.47002       -1.11253       -0.00192
C         -3.60947       -0.23400       -0.00264
N         -3.83834        0.84454       -0.00119
C         -3.06287        1.62831       -0.00160
C         -1.62915        1.74300       -0.00201
C         -1.23034        3.13304       -0.00137
N         -0.89992        4.22743       -0.00072
C         -0.71703        0.67055       -0.00201
N          0.60175        1.00782       -0.00222
C          1.49861        0.01149       -0.00200
C          1.21474       -1.31263       -0.00143
N          2.32164       -2.08519       -0.00103
C          3.15627       -1.32422       -0.00141
N          4.43742       -1.79529       -0.00151
H          4.62291       -2.79143        0.00245
H          5.22002       -1.14910        0.00167
C          2.90443        0.10275       -0.00216
C          3.66631        1.31220       -0.00309
N          4.60164        1.96921        0.00153
C         -0.11991       -1.69651       -0.00141
C         -1.12169       -0.70111       -0.00180
H         -0.35645       -2.75751       -0.00111
H         -3.80014        2.42475       -0.00076
H         -4.66424       -0.49034       -0.00115
