23
Coordinates from ORCA-job ./opt_b97-3c_parallel
N         -3.31032       -2.88852       -0.43550
C         -2.95554       -1.81001       -0.31044
C         -2.46725       -0.47249       -0.15123
C         -3.45342        0.56228       -0.25845
N         -3.26513        1.88031       -0.13486
C         -2.15741        2.59332        0.08857
N         -0.83299        2.23969        0.24524
C         -0.38407        0.97625        0.23607
N          0.90081        1.02886        0.40798
C          1.70666        0.02151        0.25863
C          1.18652       -1.30565        0.18287
C          2.17369       -2.20486       -0.02677
C          3.30517       -1.51872       -0.06923
C          3.06243       -0.18038        0.09566
C          4.10681        0.79472        0.03335
N          4.03032        1.72433       -0.62769
H          4.28981       -1.95871       -0.21782
H          2.06421       -3.28318       -0.12413
C         -0.24967       -1.43172        0.16314
C         -1.11424       -0.26589        0.07843
H         -0.36560       -2.33185        0.76489
H         -2.51430        3.63530        0.10741
H         -4.53569        0.47595       -0.44208
