26
Coordinates from ORCA-job ./opt_b97-3c_parallel
N          5.07949        1.48464       -0.11598
C          4.06900        0.95628       -0.05411
C          2.78730        0.30151        0.00944
C          2.81647       -1.13696       -0.00977
N          2.07950       -1.94963        0.11389
C          0.98120       -1.84002        0.09922
C         -0.03443       -0.81696        0.03966
C         -1.37841       -1.21025       -0.01650
N         -1.79452       -2.50947       -0.10432
H         -2.77612       -2.67292       -0.30023
H         -1.13282       -3.20011       -0.43961
C         -2.46295       -0.26835       -0.02884
C         -2.06288        1.12223        0.02287
C         -3.11533        2.01624        0.03396
C         -4.26431        1.27301       -0.01100
C         -3.89886       -0.06021       -0.05100
H         -4.65861       -0.83653       -0.09433
H         -5.28038        1.65948       -0.01460
H         -3.04806        3.10076        0.07240
C         -0.72691        1.50793        0.05120
C          0.29879        0.55464        0.05210
C          1.61144        1.05700        0.04754
H          1.73385        2.13839        0.05154
H         -0.48613        2.56886        0.07034
H          0.91542       -2.81865        0.56363
H          3.67505       -1.79001       -0.12192
