26
Coordinates from ORCA-job ./opt_b97-3c_parallel
N         -2.74338       -3.32180        0.52104
C         -2.63019       -2.19838        0.34146
C         -2.45671       -0.79090        0.15789
C         -3.66964       -0.02354        0.07633
N         -4.02368        1.01377       -0.05844
C         -3.49460        1.91751       -0.40655
C         -2.23331        2.28239       -0.03504
C         -1.20726        1.37034       -0.01942
N         -0.05543        2.07376       -0.02938
C          1.12621        1.36263        0.00556
N          2.29033        2.08690        0.08014
C          3.28320        1.14524        0.07161
N          4.27830        1.63206        0.12264
H          5.03688        0.95762       -0.00490
H          4.74216        2.50453        0.38429
C          2.67340       -0.14976       -0.03552
C          3.50278       -1.30778       -0.14391
N          4.20191       -2.20466       -0.23854
C          1.21818       -0.06684       -0.01806
C         -0.00273       -0.84234        0.05065
C          0.44944       -2.20270        0.05320
N          0.49490       -2.66716       -0.99097
C         -1.24759       -0.09143        0.06574
H         -2.09182        3.29019        0.35604
H         -4.32916        2.57360       -0.70080
H         -4.68255       -0.45153        0.14593
