22
Coordinates from ORCA-job ./opt_b97-3c_parallel
N         -2.35434       -3.35274        0.02263
C         -2.13028       -2.23172        0.00056
C         -1.81642       -0.83473       -0.00179
C         -3.04028       -0.18378       -0.00050
N         -3.44639        1.09869       -0.00987
C         -2.42215        2.01056        0.00227
N         -1.13759        2.01906        0.03737
C         -0.21250        1.12524        0.01823
C          1.15308        1.62931        0.03496
C          2.21466        0.66606        0.01801
N          3.51506        0.98327        0.01943
C          4.09674       -0.20991       -0.02787
C          3.24077       -1.22704       -0.06037
C          1.87766       -0.69444       -0.02656
C          0.60419       -1.21355       -0.04098
C         -0.48086       -0.25023       -0.00750
H          0.50590       -2.29500       -0.09201
H          3.59488       -2.25383       -0.10499
H          5.19696       -0.20334       -0.03757
H          1.36521        2.69411        0.06088
H         -2.78519        3.04939       -0.01647
H         -4.12685       -0.36089       -0.00002
