24
Coordinates from ORCA-job ./opt_b97-3c_parallel
N          4.88363        1.56838       -0.00285
C          3.89513        0.99458       -0.00189
C          2.63855        0.29146       -0.00086
C          2.71546       -1.14601        0.00016
N          2.01443       -1.99859        0.00108
C          0.91382       -1.92222        0.00097
C         -0.13390       -0.93409        0.00056
C         -1.45725       -1.39723        0.00085
C         -2.48240       -0.46184        0.00056
C         -2.21829        0.88653       -0.00013
C         -3.41956        1.57543       -0.00047
C         -4.43493        0.62337       -0.00001
C         -3.85630       -0.64314        0.00065
H         -4.38437       -1.59344        0.00126
H         -5.50135        0.83462        0.00036
H         -3.54580        2.65533       -0.00073
C         -0.91857        1.37144       -0.00022
C          0.14590        0.45628       -0.00015
C          1.43822        1.00594       -0.00077
H          1.51949        2.09150       -0.00139
H         -0.73978        2.44445       -0.00089
H         -1.67968       -2.46188        0.00143
H          0.82191       -3.00279        0.00242
H          3.60103       -1.77176        0.00020
