25
Coordinates from ORCA-job ./opt_b97-3c_parallel
N         -4.28040       -2.22157       -0.88716
C         -3.79449       -1.31236       -0.39709
C         -3.14761       -0.18308        0.18851
C         -1.73690        0.01904        0.21973
C         -1.75740        1.42729        0.16272
N         -3.04472        1.92718        0.21380
C         -3.92724        0.93569        0.25888
H         -5.02023        1.06239        0.31523
N         -0.55058        2.09622        0.02613
C          0.62600        1.33946       -0.06373
N          1.63278        2.13701       -0.13920
C          2.88442        1.86598       -0.13755
C          3.73249        0.79733       -0.10003
C          3.18519       -0.55355       -0.05781
N          4.13910       -1.12322       -0.02634
H          5.15247       -1.01069        0.01303
H          3.96409       -2.09946        0.21484
C          1.82319       -0.90339       -0.06488
C          1.69859       -2.34092       -0.03940
N          1.40906       -3.21414        0.63902
C          0.65844       -0.12047       -0.06801
C         -0.64010       -0.78024       -0.03415
H         -0.83345       -1.83997       -0.18917
H          4.81131        0.98954       -0.10645
H          3.51812        2.76616       -0.17613
