25
Coordinates from ORCA-job ./opt_b97-3c_parallel
N         -1.66711       -3.97966        0.39245
C         -1.91453       -2.87183        0.26459
C         -2.18585       -1.46859        0.12221
C         -3.59802       -1.14576        0.00124
N         -4.17362        0.03858       -0.27521
C         -3.55423        1.21436       -0.26379
N         -2.37988        1.41176        0.20797
C         -1.23018        0.85545        0.09027
C         -0.07077        1.73282        0.05008
C         -0.09509        3.16754        0.08522
N          0.40886        4.08330        0.54777
C          1.18599        1.05316       -0.00718
C          1.25213       -0.28718       -0.02396
N          0.17891       -1.14280        0.01561
C         -1.07298       -0.60721        0.06440
C          2.63898       -0.63754       -0.07159
C          3.10675       -1.98685       -0.11515
N          3.52107       -3.04998       -0.16482
C          3.25707        0.60264       -0.06242
N          4.30159        0.96819       -0.07399
H          5.03804        0.27042       -0.18897
H          4.77390        1.82789        0.20807
N          2.38943        1.63110       -0.02821
H         -4.40438        1.85685       -0.54214
H         -4.44919       -1.84365       -0.00697
