22
Coordinates from ORCA-job ./opt_b97-3c_parallel
N         -2.38965       -3.34178        0.00075
C         -2.14121       -2.22525       -0.00011
C         -1.78944       -0.83873       -0.00096
C         -2.84453        0.13615       -0.00138
N         -3.08881        1.21414       -0.00182
C         -2.31887        2.00679       -0.00273
C         -0.96199        2.15942       -0.00166
C         -0.12530        1.06843       -0.00151
N          0.93991        1.41247       -0.00179
C          2.04568        0.63012       -0.00100
C          1.90342       -0.73044       -0.00051
C          3.17812       -1.46219       -0.00014
C          3.46468       -0.11185       -0.00101
N          3.33059        1.00171       -0.00162
H          4.56629       -0.09508       -0.00059
H          3.96819       -2.20927       -0.00013
C          0.62947       -1.28776       -0.00003
C         -0.48555       -0.35348       -0.00090
H          0.54268       -2.37156        0.00016
H         -0.56662        3.17771        0.00083
H         -2.85474        2.96828       -0.00054
H         -3.87247       -0.25826       -0.00071
