25
Coordinates from ORCA-job ./opt_b97-3c_parallel
N         -5.05709       -0.41693        0.05153
C         -3.72859       -0.23815        0.01736
C         -3.12399        0.94956       -0.05811
C         -1.65196        0.74142       -0.06752
C         -1.48421       -0.62083        0.00086
C         -2.77648       -1.21326        0.06007
H         -2.98339       -2.26265        0.24631
N         -0.31428       -1.28572        0.01151
C          0.84102       -0.57930       -0.02717
N          1.98483       -1.31986       -0.02116
C          3.15753       -0.66139       -0.01962
N          3.69588       -1.62812       -0.06402
H          3.47944       -2.61658       -0.19815
H          4.71151       -1.56016       -0.12171
C          3.76657        0.56347       -0.00288
C          2.98065        1.67507       -0.06889
N          1.87854        1.65078       -0.09043
C          0.79957        0.84303       -0.07859
C         -0.46492        1.54712       -0.13131
H         -0.52205        2.62653       -0.24258
H          3.29918        2.61496        0.40834
H          4.81894        0.66385        0.25839
H         -3.69502        1.87474       -0.10109
H         -5.68432        0.28944       -0.32935
H         -5.46174       -1.33328       -0.13521
