27
Coordinates from ORCA-job ./opt_b97-3c_parallel
N         -5.34939       -1.49386        0.06412
C         -4.25933       -1.15295        0.08434
C         -2.86702       -0.76857        0.09784
C         -2.05647       -1.90379        0.40750
N         -0.74766       -2.04402        0.20797
C          0.21466       -1.15519       -0.03531
N          1.27633       -1.89681       -0.11077
C          2.45501       -1.36930       -0.13833
C          2.60101        0.01963        0.12903
C          3.93180        0.32734        0.09293
C          4.56171       -0.80112       -0.20656
C          3.72200       -1.82195       -0.34803
H          4.00077       -2.84200       -0.60365
H          5.64037       -0.88102       -0.32579
H          4.40441        1.29514        0.25319
C          1.47547        0.83483        0.29815
C          1.94897        2.14950        0.65391
N          1.85473        2.39298        1.76653
C          0.18558        0.28242        0.14011
C         -0.99855        1.02829        0.05127
C         -0.89896        2.46961       -0.04152
N         -0.71417        3.13010       -0.95775
C         -2.37133        0.52413       -0.12823
N         -3.20532        1.22131       -0.38723
H         -4.17604        1.04433       -0.64747
H         -2.96497        2.11516       -0.81756
H         -2.38157       -2.93623        0.61111
