23
Coordinates from ORCA-job ./opt_b97-3c_parallel
N         -4.23613       -1.42645        0.97843
C         -3.91631       -0.94495       -0.00684
C         -2.83121       -0.02022       -0.10023
C         -3.20279        1.35538       -0.34326
N         -2.40413        2.14575       -0.41613
C         -1.22850        1.50871       -0.24102
N          0.01601        2.02888       -0.24063
C          1.08145        1.20591       -0.05905
N          2.33711        1.72787       -0.04155
C          3.34910        1.27124        0.09525
N          3.62384        0.18827        0.21357
C          3.08396       -0.79413        0.24451
N          3.77816       -1.78083       -0.38891
H          4.67697       -1.55930       -0.80204
H          3.27462       -2.57789       -0.76089
N          1.99104       -1.02165        0.25848
C          0.91126       -0.19925        0.11940
C         -0.39098       -0.72225        0.13890
C         -0.66019       -2.12719        0.33400
N         -0.88885       -3.23569        0.49094
C         -1.43322        0.17564       -0.04731
H          3.72929        1.75204        0.98409
H         -4.18514        1.79487       -0.47134
