25
Coordinates from ORCA-job ./opt_b97-3c_parallel
N          5.43608        1.03426        0.17394
C          4.31895        0.79793        0.11404
C          2.91126        0.48417        0.03671
C          2.14525        1.69014       -0.03918
N          1.05410        1.69335        0.00262
C         -0.10694        1.03268        0.01498
N         -1.24856        1.76730        0.07912
C         -2.43977        1.14242        0.07663
N         -3.68306        1.66534        0.14954
C         -4.43889        0.82867        0.12460
C         -3.88815       -0.50094        0.01231
C         -2.50858       -0.20943       -0.00990
C         -1.38611       -1.02193       -0.07743
C         -1.58218       -2.45098       -0.16963
N         -1.74461       -3.57872       -0.25532
C         -0.12214       -0.38593       -0.04615
C          1.04460       -1.18929       -0.05272
C          2.40093       -0.82326        0.01222
N          3.29241       -1.86373        0.06371
H          4.25829       -1.66036        0.30039
H          2.94337       -2.79485        0.26214
H          0.89831       -2.26511       -0.08419
H         -4.41853       -1.44719       -0.02011
H         -5.47334        1.14316        0.19391
H          2.36001        2.59770       -0.59176
