25
Coordinates from ORCA-job ./opt_b97-3c_parallel
N         -3.11952       -2.43547        0.17938
C         -2.46690       -1.26088       -0.05366
N         -1.37683       -1.42947       -0.12078
C         -0.21049       -0.74673       -0.06179
C          0.98962       -1.45659       -0.18269
C          2.17797       -0.74798       -0.08992
C          3.52428       -1.14578       -0.16445
C          4.17342        0.13121        0.03459
N          3.51313        1.03581        0.18643
C          2.23886        0.59112        0.12228
C          1.05904        1.31768        0.23628
C         -0.17467        0.65868        0.13021
N         -1.30691        1.39448        0.19764
C         -2.40303        1.27120        0.13393
N         -2.96003        2.47360       -0.18741
H         -2.35592        3.26935       -0.35959
H         -3.89847        2.50197       -0.57020
C         -3.11729        0.02313        0.03354
H         -4.17087        0.03613       -0.23554
H          1.09649        2.39310        0.39554
H          5.22973        0.37147        0.05333
H          3.97714       -2.11495       -0.34587
H          0.99404       -2.53200       -0.34191
H         -4.08046       -2.41723        0.50048
H         -2.58225       -3.27995        0.33974
