32
Coordinates from ORCA-job ./opt_b97-3c_parallel
N          5.40490        0.81490        0.27517
C          4.33528        0.43178        0.13387
C          2.98328       -0.05091       -0.02565
C          2.98470       -1.40043       -0.52421
N          2.29234       -2.25542       -0.43829
C          1.28725       -2.16396        0.00813
C          0.23303       -1.17823        0.06741
C         -1.08285       -1.64679        0.13203
N         -1.38792       -2.97855        0.22298
H         -2.32931       -3.23201        0.50171
H         -0.64201       -3.62298        0.46093
C         -2.24475       -0.79559        0.14350
C         -2.01123        0.61781        0.05750
C         -3.28204        1.28385       -0.05133
N         -3.80526        2.45419       -0.52161
H         -3.20773        3.05913       -1.07459
H         -4.80555        2.50966       -0.67639
C         -4.22029        0.25607        0.29899
C         -3.65721       -1.05393        0.14151
H         -4.15528       -1.81392        0.73853
H         -5.24814        0.44196        0.59531
C         -0.63000        1.05232        0.09361
N         -0.62093        2.41359       -0.06518
H         -1.49700        2.87102       -0.29346
H          0.23586        2.84659       -0.39345
C          0.50092        0.20623        0.10706
C          1.82773        0.71899        0.20262
N          2.04561        2.01259        0.61018
H          2.97872        2.26303        0.92050
H          1.26732        2.50556        1.03615
H          1.24569       -3.16559       -0.40886
H          3.61105       -1.82758       -1.29897
