26
Coordinates from ORCA-job ./opt_b97-3c_parallel
N         -1.96205       -3.96899        0.00060
C         -2.05667       -2.82968        0.00078
C         -2.16105       -1.38771        0.00073
C         -3.54319       -0.98793        0.00073
N         -4.15920       -0.07373        0.00085
C         -3.71393        0.93370        0.00062
C         -2.42150        1.56215       -0.00015
C         -1.17743        0.90394       -0.00035
C         -1.05192       -0.51975        0.00013
N          0.17289       -1.11142       -0.00014
C          1.24877       -0.31167       -0.00100
C          1.23472        1.04369       -0.00149
N          2.48244        1.56582       -0.00243
C          3.14876        0.65626       -0.00259
N          4.49784        0.86445       -0.00361
H          4.87518        1.80561       -0.00359
H          5.13910        0.07824       -0.00300
C          2.60784       -0.68703       -0.00171
C          3.12483       -2.01917       -0.00180
N          3.90868       -2.85161       -0.00151
C          0.00052        1.69260       -0.00109
C         -0.02053        3.13924       -0.00177
N         -0.05280        4.28191       -0.00219
H         -2.53871        2.64290       -0.00077
H         -4.69039        1.40615        0.00124
H         -4.42751       -1.61651        0.00114
