23
Coordinates from ORCA-job ./opt_b97-3c_parallel
N          4.42508        1.19611        0.00029
C          3.63123        0.37568        0.00052
C          2.60710       -0.61834        0.00059
C          3.00620       -1.91975        0.00051
N          1.84469       -2.53567        0.00115
C          0.86433       -1.56995        0.00128
N         -0.43047       -1.65136        0.00182
C         -1.43746       -0.83182        0.00122
C         -2.77355       -1.40284        0.00198
C         -4.03687       -0.86730        0.00200
C         -4.31361        0.42852        0.00122
C         -3.30795        1.32924       -0.00002
N         -1.97141        1.60470       -0.00043
C         -1.09748        0.52962        0.00020
C          0.30453        0.91596       -0.00032
C          0.80255        2.25757       -0.00184
N          1.23924        3.31233       -0.00324
C          1.23741       -0.18286        0.00051
H         -3.57192        2.39858       -0.00062
H         -5.34714        0.76949        0.00133
H         -4.87658       -1.55918        0.00266
H         -2.77360       -2.48961        0.00272
H          4.03068       -2.32510        0.00016
