23
Coordinates from ORCA-job ./opt_b97-3c_parallel
N          4.59400        0.16536        0.03343
C          3.50976       -0.06046        0.02408
N          2.72003        1.08246        0.02395
C          1.40937        0.67019        0.01448
C          1.34447       -0.75584        0.00950
C          2.75826       -1.21160        0.01432
H          3.22602       -2.19554        0.01264
C          0.17154       -1.51091        0.00270
C         -1.11570       -0.83738        0.00060
C         -2.28595       -1.52877       -0.00283
C         -3.59339       -1.16686       -0.00438
C         -4.09579        0.17175       -0.00404
C         -3.28636        1.28743       -0.00091
N         -1.96752        1.56567        0.00301
C         -0.96173        0.60568        0.00408
N          0.20984        1.17752        0.00897
H         -3.90981        2.19566       -0.00137
H         -5.17729        0.28125       -0.00632
H         -4.35288       -1.94423       -0.00665
H         -2.15697       -2.61010       -0.00394
H          0.23000       -2.59819       -0.00024
H          5.32674       -0.54820        0.04121
H          5.09794        1.05438        0.03967
