25
Coordinates from ORCA-job ./opt_b97-3c_parallel
N         -3.28615       -2.38269       -0.05784
C         -2.62679       -1.21560        0.03672
C         -3.25071       -0.04517       -0.00781
C         -2.55387        1.11784        0.06856
N         -1.30980        1.69975        0.03295
C         -0.17683        0.89234       -0.02387
C          1.11419        1.55069       -0.12460
C          2.24792        0.74342       -0.05017
C          3.69112        1.02500       -0.12577
C          4.40408       -0.08980        0.01057
N          3.61110       -1.14085        0.16761
C          2.31382       -0.67314        0.12744
N          1.06051       -1.03112        0.18473
C         -0.13359       -0.50704        0.10991
C         -1.27138       -1.40371        0.19146
H         -0.96520       -2.43639        0.35440
H          5.49286       -0.25886        0.00867
H          4.18396        1.98494       -0.26937
H          1.22766        2.62325       -0.27372
N         -3.05957        2.09827        0.17353
H         -2.88525        3.10507        0.14871
H         -4.05761        2.01700        0.37794
H         -4.33461       -0.02730       -0.14077
H         -2.81464       -3.24545       -0.33288
H         -4.24554       -2.42595       -0.40347
