23
Coordinates from ORCA-job ./opt_b97-3c_parallel
N          3.95346        1.31157       -0.00125
C          2.82012        0.54860        0.00050
N          3.17141       -0.49681        0.00176
C          2.59677       -1.44199        0.00153
C          1.20818       -1.81185        0.00197
C          0.12962       -0.92059        0.00182
N         -1.10717       -1.48643        0.00205
C         -2.15044       -0.63761        0.00173
C         -2.09147        0.71674        0.00017
N         -3.31304        1.29254       -0.00072
C         -4.04837        0.43402        0.00016
C         -3.52723       -0.91586        0.00145
H         -4.07050       -1.85446        0.00393
H         -5.07559        0.77702        0.00062
C         -0.84228        1.31652       -0.00059
C          0.29446        0.49488        0.00025
C          1.52137        1.16504       -0.00008
H          1.55916        2.25263       -0.00102
H         -0.75630        2.40073       -0.00179
H          1.03818       -2.88743        0.00265
H          3.45813       -2.09955       -0.00031
H          4.87173        0.88392        0.00389
H          3.88516        2.32361        0.00285
