24
Coordinates from ORCA-job ./opt_b97-3c_parallel
N          5.86483       -0.16754        0.12200
C          4.72414       -0.12123        0.09353
C          3.29664       -0.10870        0.06305
C          2.80661       -1.39059        0.07458
N          1.60467       -1.97734        0.03234
C          0.42010       -1.26377       -0.00537
N         -0.55807       -2.13443       -0.05455
C         -1.74317       -1.57794       -0.05989
C         -1.90070       -0.13333        0.00846
N         -0.91089        0.39493        0.03149
C          0.19608        0.18550        0.02523
C          1.16288        1.17929        0.02507
C          0.85613        2.58608        0.01773
N          0.43712        3.42274       -0.63770
C          2.54325        1.10941        0.02507
H          3.16048        2.00893        0.01008
C         -3.32899       -0.02652        0.04599
C         -3.98763        1.23049        0.20040
N         -4.50023        2.23860        0.35988
C         -3.90617       -1.25645       -0.02576
C         -2.96240       -2.18151       -0.08877
H         -3.13730       -3.25286       -0.16382
H         -4.97750       -1.44773       -0.03974
H          3.34176       -2.35348        0.10843
