36
Coordinates from ORCA-job ./opt_b97-3c_parallel
N          5.15538        0.09697       -0.13565
C          3.78922        0.09526       -0.05211
C          3.15957       -1.11884       -0.26182
C          1.80806       -1.45551       -0.20286
N          1.63739       -2.78169       -0.51186
H          0.70559       -3.09171       -0.76654
H          2.42347       -3.29199       -0.89804
C          0.68002       -0.61681        0.01865
C         -0.60592       -1.21086        0.14842
N         -0.90131       -2.51044        0.47351
H         -0.14629       -3.08694        0.82969
H         -1.83892       -2.71199        0.80289
C         -1.89082       -0.54576        0.13630
C         -1.83081        0.87232       -0.00516
C         -0.53229        1.46011        0.13356
C          0.70885        0.79755        0.13194
C          1.83879        1.63535        0.28594
C          3.19002        1.30885        0.22676
H          3.88440        2.13354        0.38663
N          1.65889        2.96724        0.57070
H          0.74694        3.26233        0.90114
H          2.45962        3.49305        0.90321
H         -0.67921        2.53393        0.19866
C         -3.14025        1.41718       -0.21990
N         -3.44843        2.63511       -0.75391
H         -2.69660        3.18726       -1.15202
H         -4.38129        2.77387       -1.12640
C         -3.99849        0.29505        0.02633
C         -3.27486       -0.94316        0.10565
N         -4.06345       -2.04994        0.24916
H         -3.63495       -2.96691        0.18835
H         -5.05897       -1.97085        0.07487
H         -5.07689        0.37697        0.12165
H          3.84051       -1.94077       -0.48496
H          5.63534        0.98911       -0.18070
H          5.61571       -0.70833       -0.54457
