27
Coordinates from ORCA-job ./opt_b97-3c_parallel
N         -4.97550       -0.28807        0.00613
C         -3.61467       -0.16314       -0.00949
C         -2.97819       -1.45632        0.06808
C         -1.75933       -0.70689        0.02354
C         -1.86811        0.66678       -0.04875
C         -3.19067        1.21479       -0.08147
H         -3.53855        2.02367        0.55327
C         -0.72495        1.45985       -0.08509
C          0.54657        0.87492       -0.05271
C          1.63780        1.75167       -0.08563
C          3.01688        1.34478       -0.05634
N          3.59949        0.40724       -0.02537
C          3.17111       -0.60862        0.00373
N          4.33473       -1.32330        0.03360
H          4.31053       -2.32268        0.19959
H          5.21908       -0.84018        0.14498
C          1.87318       -1.23095        0.03461
C          0.65823       -0.53483        0.00966
C         -0.50591       -1.31097        0.04966
H         -0.43995       -2.39579        0.10235
H          1.88971       -2.31783        0.07698
H          3.90375        1.96778       -0.05059
H          1.49691        2.82911       -0.13137
H         -0.82943        2.54148       -0.13785
H         -3.22099       -2.30895       -0.55823
H         -5.38315       -1.20951       -0.10589
H         -5.54305        0.51922       -0.22701
