26
Coordinates from ORCA-job ./opt_b97-3c_parallel
N          2.89381        2.86592       -0.60533
C          2.51493        1.81682       -0.35364
C          2.05768        0.47781       -0.05805
C          3.26206       -0.31115       -0.12705
N          3.62731       -1.33425        0.06067
C          2.90929       -2.16478        0.15208
C          1.49612       -2.40549        0.05120
C          0.49026       -1.43082        0.02466
N         -0.76091       -1.94586       -0.00400
C         -1.81333       -1.11202       -0.00496
C         -1.68175        0.25496        0.05780
C         -2.91077        0.99920        0.09902
C         -3.57897       -0.27600        0.01398
N         -4.93372       -0.09989        0.01381
H         -5.30858        0.83416       -0.11454
H         -5.53283       -0.89117       -0.19514
C         -3.13973       -1.64910       -0.04316
H         -3.50258       -2.38780       -0.75014
H         -3.13639        1.78954        0.80860
C         -0.40460        0.82616        0.08378
C         -0.34572        2.26189        0.25224
N         -0.32595        3.39470        0.40518
C          0.73364       -0.02502        0.02183
H          1.25144       -3.46594        0.04950
H          3.67996       -2.84026        0.50691
H          4.29705        0.01537       -0.17170
