25
Coordinates from ORCA-job ./opt_b97-3c_parallel
N         -1.41934       -4.10408        0.01498
C         -1.59445       -2.97438        0.00995
C         -1.79603       -1.54371        0.00461
C         -3.20794       -1.26809        0.00324
N         -3.89287       -0.40437       -0.00044
C         -3.54527        0.64043        0.00026
C         -2.30992        1.37444       -0.00075
C         -1.01159        0.83114        0.00011
C          0.08538        1.73057       -0.00126
C         -0.08574        3.16877       -0.00301
N         -0.23611        4.30254       -0.00372
C          1.38746        1.22813       -0.00009
C          1.58753       -0.11236        0.00194
C          2.98478       -0.29652        0.00195
C          3.87339       -1.41381        0.00254
N          4.29189       -2.47728        0.00185
C          3.35137        1.10218        0.00041
N          2.55883        1.90391       -0.00068
H          4.33595        1.55460       -0.00027
C          0.55952       -1.03557        0.00317
C         -0.76937       -0.57627        0.00263
H          0.81186       -2.09313        0.00465
H         -2.53008        2.43914       -0.00286
H         -4.55632        1.03363        0.00023
H         -4.03559       -1.97024       -0.00205
