24
Coordinates from ORCA-job ./opt_b97-3c_parallel
N          2.40509        3.36140        0.19179
C          2.20459        2.23670        0.14584
C          1.96978        0.81292        0.07678
C          3.21527        0.09426        0.00529
N          3.60299       -0.93809       -0.02538
C          2.93057       -1.81135       -0.04572
C          1.52607       -2.11497       -0.09803
C          0.48696       -1.17888       -0.04739
N         -0.76618       -1.70006       -0.09734
C         -1.80183       -0.84148       -0.03911
C         -1.61344        0.51754        0.07555
N         -0.38354        1.06429        0.11706
C          0.68970        0.22871        0.05079
C         -2.78087        1.34111        0.14462
C         -3.48589        0.08538        0.01257
N         -4.83734        0.28664       -0.04451
H         -5.20844        1.19937        0.19505
H         -5.45696       -0.51434        0.01120
C         -3.14993       -1.31631       -0.09529
H         -3.56827       -2.10625        0.52049
H         -2.96624        2.22663       -0.45491
H          1.31489       -3.17963       -0.17286
H          3.76439       -2.50338       -0.00361
H          4.22304        0.49235       -0.04864
