28
Coordinates from ORCA-job ./opt_b97-3c_parallel
N         -3.05153       -3.91813       -0.00155
C         -2.45616       -2.94283       -0.00160
C         -2.01877       -1.58192       -0.00216
C         -2.62740       -0.26878       -0.00281
N         -4.00042       -0.29441       -0.00613
H         -4.52367        0.57603       -0.00339
H         -4.50432       -1.17551       -0.00279
C         -2.02639        1.05020       -0.00217
C         -2.70614        2.30977        0.02752
N         -3.30727        3.28191       -0.00748
C         -0.72429        0.43441       -0.00184
C         -0.73352       -0.94200       -0.00144
C          0.46452       -1.64763       -0.00064
C          1.68916       -0.97513       -0.00005
N          2.79836       -1.72685        0.00102
C          3.89236       -1.76149        0.00094
C          4.72244       -0.59604        0.00144
C          4.26402        0.71910        0.00178
C          2.93802        1.17130        0.00022
C          1.72531        0.43621       -0.00079
C          0.49214        1.13661       -0.00196
C          0.44424        2.58287       -0.00408
N          0.42178        3.72573       -0.00588
H          2.88516        2.25508       -0.00017
H          5.03071        1.49029        0.00141
H          5.79129       -0.79670        0.00159
H          4.19553       -2.80140        0.00062
H          0.44997       -2.73629       -0.00051
