27
Coordinates from ORCA-job ./opt_b97-3c_parallel
N         -5.11891       -0.93162       -0.56369
C         -4.19601       -0.30849       -0.31077
C         -3.01564        0.43671        0.00339
C         -3.36579        1.74696        0.18708
N         -2.22194        2.42657        0.33783
C         -1.16139        1.60212        0.26574
N          0.15606        1.87230        0.36762
C          1.00868        0.82090        0.27241
N          2.24761        1.22252        0.36473
C          3.25863        0.88355       -0.36817
N          3.84584        1.75383       -0.70137
H          3.74109        2.74986       -0.51910
H          4.84289        1.55009       -0.68314
C          3.63967       -0.27260        0.24555
C          2.97535       -1.46087        0.09976
N          3.57837       -2.38621        0.07571
H          4.53552       -2.54136        0.38633
H          3.04075       -3.19700        0.37741
C          1.54343       -1.65796        0.02096
C          0.62113       -0.52525        0.08112
C         -0.76151       -0.76639       -0.04330
C         -1.31774       -2.07876       -0.27078
N         -1.75632       -3.11625       -0.46508
C         -1.61141        0.33087        0.05898
H          1.19464       -2.68410       -0.06131
H          4.56938       -0.25967        0.81472
H         -4.28313        2.35151        0.25114
