24
Coordinates from ORCA-job ./opt_b97-3c_parallel
N         -2.16785       -1.79780       -1.89145
C         -2.47278       -1.35530       -0.88131
C         -2.03312       -0.74841       -0.06232
C         -3.15095       -0.12560        0.39107
N         -3.64559        1.11166        0.42816
C         -2.93173        2.18796        0.06640
N         -1.56146        2.32130       -0.15921
C         -0.59860        1.31125       -0.10503
N          0.59429        1.83502       -0.15485
C          1.68833        1.13672       -0.07042
C          1.57382       -0.26219        0.08067
N          2.83205       -0.81075        0.13987
C          3.68934        0.27926        0.02434
N          4.73551       -0.08500        0.05448
H          5.56591        0.41995       -0.26474
H          5.09660       -0.97416        0.40852
C          3.01092        1.47754       -0.09143
H          3.37729        2.27611       -0.73492
C          0.33962       -0.90010        0.13546
C          0.41032       -2.32667        0.30299
N          0.33293       -2.56216        1.41985
C         -0.81834       -0.12310        0.01646
H         -3.68450        2.99296        0.10196
H         -4.19222       -0.20373        0.74405
