32
Coordinates from ORCA-job ./opt_b97-3c_parallel
N          5.64244        1.19096       -0.44698
C          4.62939        0.68964       -0.27627
C          3.34693        0.06606       -0.08312
C          3.37464       -1.36379        0.08140
N          2.64874       -2.19165        0.14833
C          1.56076       -2.03854        0.04685
C          0.53680       -1.02145        0.07295
C         -0.80180       -1.41877        0.13140
N         -1.16987       -2.73523        0.21023
H         -2.13464       -2.94676        0.44121
H         -0.46383       -3.42132        0.45201
C         -1.91297       -0.49690        0.09294
C         -1.59780        0.90561        0.12187
C         -2.81496        1.66711        0.04488
N         -3.15806        2.98358       -0.07777
H         -2.43673        3.64624       -0.34138
H         -4.12033        3.21773       -0.29604
C         -3.84310        0.66726        0.11257
C         -3.33356       -0.66595       -0.04114
N         -4.19732       -1.67209       -0.36882
H         -3.81034       -2.52906       -0.74940
H         -5.14707       -1.42814       -0.62712
H         -4.89774        0.89670        0.23407
C         -0.19649        1.26509        0.13413
N         -0.01396        2.61683        0.25833
H         -0.81551        3.17273        0.53736
H          0.90189        2.95187        0.53319
C          0.85985        0.34545        0.05412
C          2.17994        0.83436       -0.04707
H          2.32862        1.90785       -0.13064
H          1.46845       -3.08950       -0.20711
H          4.13422       -1.96583        0.56801
