29
Coordinates from ORCA-job ./opt_b97-3c_parallel
N          5.39603        0.29295       -0.30980
C          4.28894        0.03994       -0.17948
C          2.88675       -0.27556       -0.03106
C          2.72469       -1.66428        0.31117
N          1.95508       -2.44373        0.18110
C          0.95361       -2.15461       -0.17814
C          0.03255       -1.05145       -0.09174
C         -1.31951       -1.40812       -0.08554
C         -2.26933       -0.40389       -0.03750
C         -1.91245        0.89005        0.03497
C         -3.10566        1.66907        0.11570
N         -3.48703        0.60379        0.05204
C         -3.68894       -0.50628       -0.03833
N         -4.72139       -1.38682       -0.16209
H         -4.52845       -2.34345       -0.43641
H         -5.65955       -1.03258       -0.31048
H         -3.27349        2.60118        0.64100
C         -0.57656        1.29826        0.03757
N         -0.35819        2.64130        0.20636
H          0.56652        2.93384        0.50407
H         -1.14144        3.21921        0.48886
C          0.45159        0.31176       -0.06091
C          1.83615        0.65558       -0.15533
N          2.22845        1.94091       -0.43927
H          3.19317        2.09636       -0.71162
H          1.53039        2.57354       -0.81579
H         -1.62711       -2.45030       -0.12980
H          0.73307       -3.21379       -0.26091
H          3.36183       -2.28349        0.93282
