35
Coordinates from ORCA-job ./opt_b97-3c_parallel
N          4.95116        0.47346       -0.08617
C          3.59299        0.32086       -0.01969
C          2.82959        1.43822       -0.28738
C          1.45140        1.62290       -0.20103
N          1.15362        2.92026       -0.53855
H          0.19340        3.14092       -0.78170
H          1.88546        3.50075       -0.93195
C          0.41308        0.66982        0.03133
C         -0.92514        1.15765        0.19932
N         -1.26577        2.44040        0.55304
H         -0.52942        3.04258        0.90599
H         -2.20784        2.60279        0.89171
C         -1.99919        0.28746        0.09011
C         -1.82388       -1.01091       -0.16111
C         -3.10343       -1.62890       -0.30369
N         -3.35882       -0.54847       -0.08507
C         -3.40073        0.55968        0.13355
N         -4.46082        1.40720        0.26310
H         -5.39126        1.07954        0.03089
H         -4.29797        2.40773        0.26934
H         -3.37981       -2.48799       -0.90236
C         -0.55845       -1.57694       -0.17683
N         -0.52591       -2.90814       -0.51603
H         -1.35935       -3.32804       -0.90921
H          0.37141       -3.31122       -0.76474
C          0.59590       -0.75827        0.04850
C          1.82505       -1.41870        0.34307
N          1.82471       -2.70944        0.81239
H          2.66031       -3.05668        1.26958
H          0.93513       -3.10864        1.09431
C          3.12607       -0.92571        0.33846
H          3.90829       -1.64035        0.59751
H          3.41373        2.32127       -0.55033
H          5.32392        1.30839       -0.52470
H          5.53256       -0.35737       -0.07969
