20
Coordinates from ORCA-job ./opt_b97-3c_parallel
N          3.85911        2.38501        0.00740
C          3.36375        1.35730       -0.01901
C          2.70331        0.09169       -0.03225
C          1.29311       -0.05021       -0.01845
C          1.04168       -1.43919       -0.00207
N          2.31216       -1.99206       -0.01625
C          3.32313       -1.12536       -0.03630
H          4.39263       -1.38972       -0.05460
N         -0.28757       -1.84938        0.02662
C         -1.30268       -0.89174        0.03341
N         -2.59863       -1.40692        0.07092
C         -3.65752       -0.51742        0.07387
N         -4.15100        0.77006        0.05282
C         -3.14082        1.70866        0.01190
N         -1.86335        1.49628        0.00465
C         -0.99419        0.53550        0.00724
C          0.32830        0.92610       -0.01441
H          0.60118        1.97913       -0.02958
H         -3.71506        2.64899       -0.01091
H         -4.66480       -0.96236        0.10845
