31
Coordinates from ORCA-job ./opt_b97-3c_parallel
N         -3.46435       -2.53893        0.23312
C         -2.95190       -1.28612        0.05685
C         -3.62473       -0.03090       -0.12583
C         -2.73535        1.09472       -0.20185
N         -3.23538        2.36550       -0.23169
H         -2.60118        3.13363       -0.04202
H         -4.21958        2.50394       -0.03177
C         -1.42862        0.49765       -0.16709
C         -1.56572       -0.92268        0.01061
C         -0.35643       -1.70337        0.08489
C          0.92630       -1.16179        0.04598
C          1.99805       -2.06953        0.08613
C          3.34562       -1.75077       -0.09515
C          3.82078       -0.42852       -0.40365
N          3.40596        0.58567       -0.25230
C          2.36847        0.85610        0.01731
N          2.68725        1.80372        0.95400
H          1.94308        2.29416        1.43780
H          3.61468        2.21309        0.96185
C          1.06447        0.23137       -0.05229
C         -0.08166        1.02319       -0.19617
N         -0.01628        2.37568       -0.39861
H          0.88572        2.77541       -0.63464
H         -0.84528        2.84194       -0.74991
H          4.80642       -0.12436       -0.73531
H          4.10114       -2.53168       -0.06218
H          1.76785       -3.12300        0.22882
H         -0.51333       -2.77719        0.15554
H         -4.70471        0.05771       -0.18782
H         -4.45267       -2.69089        0.06458
H         -2.83909       -3.33444        0.16838
