32
Coordinates from ORCA-job ./opt_b97-3c_parallel
N         -5.96197       -0.69894       -0.24350
C         -4.82748       -0.58845       -0.15055
C         -3.37648       -0.45057       -0.04790
C         -2.66312       -1.65782        0.00162
C         -1.29070       -1.83796        0.07607
C         -0.23460       -0.92840        0.06564
C          1.01244       -1.58862        0.09023
C          2.18494       -0.86192        0.04407
C          2.14903        0.49923       -0.02720
C          3.45515        0.96903       -0.08708
C          3.87311        2.34253       -0.18817
N          4.19994        3.43351       -0.28064
C          4.30090       -0.13513       -0.04597
C          3.50914       -1.27573        0.03794
C          3.98784       -2.63182        0.09810
N          4.35554       -3.71229        0.15123
H          5.38775       -0.11083       -0.07762
C          0.94609        1.18389       -0.03235
C         -0.30158        0.49382        0.02880
C         -1.49164        1.27832        0.05898
C         -1.31322        2.72556        0.16049
N         -1.18661        3.85854        0.25161
C         -2.85123        0.86081        0.01363
N         -3.80533        1.86729        0.01683
H         -3.52075        2.81903        0.22532
H         -4.78192        1.62248        0.14354
H          1.03300        2.26348       -0.09714
H          1.08203       -2.67397        0.13090
H         -0.99669       -2.88723        0.11887
N         -3.35320       -2.84883       -0.02105
H         -2.84213       -3.71201       -0.16930
H         -4.34416       -2.83673       -0.24194
