29
Coordinates from ORCA-job ./opt_b97-3c_parallel
N         -5.67001       -0.40244       -0.00776
C         -4.52787       -0.34824       -0.01332
C         -3.07988       -0.29334       -0.01035
C         -2.49682        1.02127        0.00843
N         -1.46484        1.37928        0.00611
C         -0.21763        0.89161        0.00222
C          0.83172        1.82208        0.00590
C          2.13905        1.36044        0.00500
C          2.41725        0.01631        0.00168
C          3.79488       -0.14334        0.00217
C          4.51683       -1.38931       -0.00065
N          5.07743       -2.38525       -0.00227
C          4.36209        1.12775        0.00542
C          3.33261        2.06555        0.00723
H          3.44555        3.14704        0.00949
H          5.42605        1.35059        0.00620
C          1.40048       -0.92851       -0.00307
C          0.06161       -0.49836       -0.00448
C         -0.89896       -1.52776       -0.01808
C         -2.30297       -1.46440       -0.02634
N         -2.94125       -2.67885       -0.05783
H         -3.94904       -2.71505        0.05632
H         -2.40457       -3.53095        0.06027
H         -0.49324       -2.53820       -0.02746
H          1.65078       -1.98740       -0.00726
H          0.62773        2.89058        0.00976
N         -3.18142        2.20434        0.06882
H         -2.68618        3.08198       -0.03971
H         -4.19165        2.20724       -0.02187
