30
Coordinates from ORCA-job ./opt_b97-3c_parallel
N         -3.14852       -2.02120        0.39563
C         -2.60262       -1.07025        0.26264
C         -3.40392        0.05103        0.26001
C         -2.54874        1.13225        0.12652
N         -3.12404        2.07711        0.15628
H         -2.76703        2.61600        0.94157
H         -3.95483        2.55688       -0.18482
C         -1.24732        0.69837        0.01586
C         -1.24027       -0.69953        0.08228
C         -0.04584       -1.50730        0.00225
N         -0.18659       -2.42158       -0.60530
H         -1.12166       -2.81230       -0.50091
H          0.43184       -3.19008       -0.85713
C          1.16018       -0.69174        0.02085
C          2.30495       -1.55338        0.27226
N          3.58603       -1.13553        0.24624
C          3.91625        0.12842       -0.03898
N          3.63910        1.35199       -0.35045
C          2.35536        1.37035       -0.19885
C          1.17333        0.68205       -0.14876
C          0.00167        1.40941       -0.11630
N         -0.10827        2.51177       -0.16244
H          0.51068        3.03148       -0.78100
H         -1.06145        2.78329       -0.40085
H          2.57096        2.28012        0.38320
H          5.01382        0.06855        0.01439
H          2.58328       -2.60083        0.46148
H         -4.38101        0.03696       -0.22771
H         -3.81385       -2.47248       -0.22889
H         -2.74090       -2.74933        0.97799
