26
Coordinates from ORCA-job ./opt_b97-3c_parallel
N         -3.52041       -2.33447       -0.07811
C         -2.61749       -1.30763       -0.06432
C         -3.14049       -0.01449       -0.09765
C         -2.35732        1.18306       -0.07222
N         -1.27115        1.30011       -0.06454
C         -0.13518        0.58940       -0.03994
C          1.07215        1.30520       -0.03873
C          2.28188        0.62204       -0.01008
N          3.53684        1.12246       -0.00621
C          4.23260        0.23182        0.01946
C          3.63459       -1.08454        0.04104
C          2.27357       -0.73260        0.01859
C          1.11490       -1.49195        0.01800
C         -0.12136       -0.82723       -0.01377
C         -1.25857       -1.65603       -0.02181
H         -1.06093       -2.72637        0.00039
H          1.17746       -2.57750        0.03888
H          4.12516       -2.05201        0.06526
H          5.27906        0.51276        0.02317
H          1.06674        2.39282       -0.06036
N         -2.90032        2.43094        0.02045
H         -2.29751        3.22955        0.18316
H         -3.89499        2.53938        0.18193
H         -4.21628        0.14380       -0.13848
H         -4.50195       -2.12420        0.06548
H         -3.19716       -3.27361        0.12541
