23
Coordinates from ORCA-job ./opt_b97-3c_parallel
N          4.87838        1.59715        0.00284
C          3.89624        1.01409        0.00131
C          2.64643        0.29615       -0.00018
C          2.74392       -1.13875        0.00196
N          2.01481       -1.96769        0.00130
C          0.91159       -1.93506       -0.00106
C         -0.13433       -0.94466       -0.00199
C         -1.46180       -1.39621       -0.00144
C         -2.48451       -0.45168       -0.00188
C         -2.22223        0.86999       -0.00338
C         -3.45224        1.58640       -0.00253
N         -3.75301        0.49261       -0.00117
C         -3.89745       -0.63261       -0.00035
H         -4.47020       -1.55201        0.00103
H         -3.61049        2.65815       -0.00213
C         -0.91883        1.35630       -0.00443
C          0.14795        0.44443       -0.00329
C          1.43862        1.00057       -0.00271
H          1.51275        2.08582       -0.00370
H         -0.74345        2.42908       -0.00517
H         -1.69258       -2.45836       -0.00048
H          0.81521       -3.01510        0.00041
H          3.64320       -1.74596        0.00302
