23
Coordinates from ORCA-job ./opt_b97-3c_parallel
N         -2.33290       -3.22645       -0.09998
C         -2.42528       -2.08626       -0.11668
C         -1.98406       -1.07107       -0.06104
C         -3.16035       -0.40020        0.02209
N         -3.68468        0.82226        0.05450
C         -2.92234        1.92402        0.01678
N         -1.53716        2.06173       -0.00961
C         -0.58548        1.04195       -0.02458
N          0.58239        1.60831       -0.01642
C          1.58262        0.79250       -0.02606
C          1.55700       -0.63255       -0.05571
N          0.34166       -1.22351       -0.06611
C         -0.79408       -0.39931       -0.04817
C          2.83144       -1.11526       -0.06164
C          3.70183       -0.10669       -0.02811
N          5.03471       -0.25041       -0.03424
H          5.46131       -1.16142        0.13239
H          5.63940        0.46047        0.37546
C          2.98135        1.05084       -0.00422
H          3.41054        2.04795        0.02474
H          3.09598       -2.17051       -0.09537
H         -3.52942        2.84317        0.03558
H         -4.26027       -0.36190        0.09369
