24
Coordinates from ORCA-job ./opt_b97-3c_parallel
N         -1.84862       -4.06749       -0.00067
C         -1.81504       -2.92544        0.00418
C         -1.75773       -1.47956        0.00600
C         -3.08185       -0.91821       -0.00459
N         -3.53514        0.08680        0.00797
C         -3.00288        1.05239        0.01685
C         -1.63817        1.50646       -0.00171
C         -1.57900        2.95403       -0.00568
N         -1.51461        4.09352       -0.00727
C         -0.49663        0.68250       -0.00482
N          0.70894        1.32392       -0.01632
C          1.83059        0.58241       -0.01329
C          1.73608       -0.77087        0.00328
C          3.06209       -1.23350        0.00532
C          3.75797        0.03226       -0.01347
N          5.12008        0.08396       -0.01490
H          5.67155       -0.76601       -0.00146
H          5.59542        0.97973       -0.03238
N          3.12609        0.96607       -0.02381
H          3.46945       -2.23860        0.02593
N          0.59785       -1.47769        0.01072
C         -0.55381       -0.74904        0.00467
H         -3.90689        1.65320        0.04342
H         -4.03140       -1.44330       -0.02663
