24
Coordinates from ORCA-job ./opt_b97-3c_parallel
N          1.13009        4.11429       -0.00134
C          1.38029        2.99877       -0.00126
C          1.68404        1.58540       -0.00014
C          3.10868        1.38339        0.00025
N          3.85004        0.56758       -0.00028
C          3.55230       -0.49265        0.00195
C          2.36138       -1.29662        0.00189
C          1.03662       -0.82143        0.00096
C          0.70816        0.56996        0.00005
N         -0.58949        0.98075       -0.00047
C         -1.53737        0.03349       -0.00046
C         -1.32905       -1.30501        0.00019
N         -2.48906       -1.99936        0.00017
C         -3.28254       -1.19691       -0.00027
C         -2.93528        0.20765       -0.00071
C         -3.81639        1.33107       -0.00172
N         -4.43149        2.29437        0.00158
H         -4.26128       -1.66176       -0.00030
C         -0.01543       -1.77077        0.00100
C          0.21185       -3.19955        0.00173
N          0.40688       -4.32573        0.00242
H          2.63087       -2.34972        0.00277
H          4.58523       -0.82398       -0.00067
H          3.89681        2.12937       -0.00002
