23
Coordinates from ORCA-job ./opt_b97-3c_parallel
N          5.85592       -0.03954        0.39452
C          4.72244       -0.06629        0.24469
C          3.30233       -0.08597        0.09595
C          2.73928       -1.34321       -0.00084
N          1.51129       -1.89712       -0.11928
C          0.36134       -1.17923       -0.12627
N         -0.79751       -1.89166       -0.16999
C         -1.97388       -1.22856       -0.12838
N         -3.23007       -1.72031       -0.14927
C         -3.90576       -0.82244       -0.06849
C         -3.34815        0.50808        0.02066
C         -4.17770        1.65417        0.21000
N         -4.85382        2.55701        0.39486
C         -1.99067        0.13311       -0.04207
N         -0.90389        0.92336       -0.02683
C          0.25967        0.23319       -0.07481
N          1.24645        1.07693       -0.10032
C          2.52413        1.10861        0.02446
N          2.54358        2.21145        0.03036
H          2.10488        2.86203       -0.61885
H          3.51613        2.11902       -0.25622
H         -4.95866       -1.14052       -0.04164
H          3.14013       -2.36792        0.00339
