24
Coordinates from ORCA-job ./opt_b97-3c_parallel
N         -3.43104       -1.97074        0.01853
C         -2.60519       -1.23528       -0.02343
N         -2.89251        0.03266       -0.02936
C         -2.55486        1.28806       -0.02432
N         -3.35417        2.05010        0.04738
H         -2.95883        2.98995        0.11147
H         -4.36543        2.19004        0.04020
C         -1.20575        1.50400       -0.03569
C          0.03645        0.67450       -0.02851
N          1.20671        1.35273       -0.02745
C          2.34979        0.62525       -0.01491
N          3.59122        1.12197       -0.00865
C          3.87179        0.04223        0.00205
C          3.68372       -1.31924        0.01101
C          2.32027       -0.75635       -0.00502
N          1.15585       -1.44917       -0.00802
C          0.01025       -0.72855       -0.01934
C         -1.26569       -1.50525       -0.02102
H         -0.93100       -2.54352       -0.02152
H          4.53099       -2.00086        0.02386
H          4.95419        0.24732        0.02400
H         -0.83136        2.52858       -0.05401
H         -4.44678       -2.07084        0.00305
H         -3.07292       -2.92642        0.06504
