28
Coordinates from ORCA-job ./opt_b97-3c_parallel
N          5.28150        0.72942       -0.26501
C          4.19561        0.37630       -0.20262
C          2.82489       -0.07066       -0.10939
C          2.76598       -1.49608        0.07943
N          2.03112       -2.31871        0.06242
C          0.96603       -2.09048       -0.10643
C         -0.00116       -1.02703       -0.03188
C         -1.33761       -1.41698        0.04873
C         -2.40549       -0.46161        0.10917
C         -2.01320        0.91584        0.11689
C         -3.02251        1.85490        0.24156
C         -4.35521        1.34594        0.36013
C         -3.74893        0.05579        0.15889
N         -4.54761       -1.03115       -0.05829
H         -4.13075       -1.95501       -0.03860
H         -5.54257       -0.94948        0.11774
H         -5.21684        1.73813       -0.17065
H         -2.79562        2.91835        0.26499
C         -0.67387        1.29017        0.01756
C          0.36214        0.33862       -0.05729
C          1.70757        0.78456       -0.14654
N          1.96594        2.12817       -0.27410
H          2.91100        2.41673       -0.50481
H          1.20691        2.74444       -0.54099
H         -0.45579        2.35430        0.02644
H         -1.61470       -2.46830        0.05729
H          0.78917       -3.15754       -0.19074
H          3.50677       -2.14627        0.53254
