28
Coordinates from ORCA-job ./opt_b97-3c_parallel
N         -5.57525       -0.71500       -0.42748
C         -4.45860       -0.50778       -0.30474
C         -3.07235       -0.20364       -0.12991
C         -2.62791        1.17167       -0.14306
N         -1.34521        1.56584        0.02705
C         -0.23232        0.80766        0.08357
N          0.71335        1.69013        0.28909
C          1.91044        1.18042        0.25513
C          2.26488       -0.10711        0.07113
C          3.67500       -0.17795       -0.04717
C          4.61303       -1.20943       -0.36379
N          4.37017       -2.25695       -0.75334
C          4.28913        1.03638        0.14759
C          3.17804        1.84345        0.29316
H          3.23152        2.92360        0.39318
H          5.14058        1.13913        0.81802
C          1.26542       -1.09802       -0.21965
C         -0.04479       -0.60487       -0.22202
C         -1.14150       -1.47163       -0.52241
C         -2.31958       -1.31327        0.13424
N         -2.45208       -2.49965        0.75332
H         -1.65384       -3.02343        1.10944
H         -3.27377       -2.71703        1.31797
H         -1.07924       -2.16602       -1.35742
H          1.46221       -2.14544       -0.44078
N         -2.86540        2.24471       -0.23658
H         -2.85522        3.23600       -0.47402
H         -3.84705        1.97509       -0.17736
