23
Coordinates from ORCA-job ./opt_b97-3c_parallel
N          2.64732        3.42337       -0.00037
C          2.38722        2.31043       -0.00025
C          1.99671        0.93373       -0.00006
C          3.27102        0.38444       -0.00325
N          3.77386       -0.86395       -0.00508
C          2.83081       -1.86089       -0.00314
N          1.55820       -2.04829        0.00034
C          0.57623       -1.19825        0.00164
C         -0.72706       -1.80767        0.00321
C         -1.79053       -0.93350        0.00485
N         -3.09440       -1.18652        0.00655
C         -3.63758        0.08982        0.00766
N         -4.73230        0.23076        0.00905
H         -5.43928       -0.50395        0.00992
H         -5.23818        1.11630        0.00968
N         -2.79886        1.09045        0.00681
C         -1.65718        0.48372        0.00504
C         -0.40451        1.06600        0.00345
C          0.74652        0.18811        0.00158
H         -0.31230        2.14843        0.00372
H         -0.87610       -2.88428        0.00319
H          3.40803       -2.79864       -0.00474
H          4.35782        0.56453       -0.00551
