26
Coordinates from ORCA-job ./opt_b97-3c_parallel
N         -5.82964       -0.47413        0.19612
C         -4.68973       -0.52579        0.15448
C         -3.26872       -0.63751        0.07389
C         -2.61863       -1.87253        0.39179
N         -1.29068       -2.06746        0.24779
C         -0.25766       -1.21810        0.04038
N          0.85185       -1.90044        0.06307
C          2.02695       -1.34422        0.05436
C          2.10996        0.06485        0.13489
N          3.43950        0.42193        0.11630
C          4.12682       -0.78380        0.02029
N          5.21966       -0.60882       -0.03698
H          5.74350        0.23550        0.20533
H          5.93186       -1.26894       -0.35823
C          3.28271       -1.87676       -0.01288
H          3.49374       -2.73103       -0.65497
C          0.97403        0.87612        0.17416
C          1.34731        2.25793        0.31372
N          1.31923        2.51784        1.42716
C         -0.27037        0.24082        0.06767
C         -1.50869        0.97148       -0.09203
C         -1.64715        2.39071       -0.23289
N         -1.72322        3.51762       -0.38713
C         -2.67141        0.41893       -0.53226
H         -3.11663        0.79158       -1.45649
H         -3.25913       -2.71460        0.69917
