23
Coordinates from ORCA-job ./opt_b97-3c_parallel
N         -4.59520        0.00236        0.05317
C         -3.23413        0.00314       -0.07882
C         -2.71203        1.34997       -0.13717
C         -1.44157        0.69282       -0.11640
C         -1.44132       -0.68528       -0.11589
C         -2.71107       -1.34334       -0.13618
H         -3.01085       -2.15685        0.51708
N         -0.29832       -1.39867       -0.08314
C          0.86964       -0.70714       -0.05045
C          2.03486       -1.48106       -0.01384
C          3.37627       -0.96458        0.02668
N          3.90018        0.00562        0.05359
C          3.37578        0.97508        0.02516
C          2.03381        1.49086       -0.01551
C          0.86904        0.71619       -0.05105
N         -0.29923        1.40682       -0.08426
H          1.98026        2.57728       -0.01554
H          4.30741        1.52959        0.01551
H          4.30832       -1.51850        0.02096
H          1.98194       -2.56760       -0.01294
H         -3.01228        2.16365        0.51558
H         -5.10094        0.87253       -0.07185
H         -5.09987       -0.86852       -0.07137
