24
Coordinates from ORCA-job ./opt_b97-3c_parallel
N         -2.64751       -3.47854        0.00808
C         -2.90845       -2.36507        0.00571
C         -2.23928       -1.09902        0.00145
C         -3.49604       -0.50350        0.00072
N         -3.82980        0.84495       -0.00219
C         -2.82297        1.77426       -0.00165
N         -1.53989        1.81182        0.00264
C         -0.60999        0.90412        0.00117
C          0.73514        1.29006        0.00117
C          1.16003        2.67226        0.00367
N          1.52108        3.75568        0.00567
C          1.81783        0.33241        0.00148
C          1.41224       -1.03218       -0.00320
N          2.52663       -1.75669       -0.00307
C          3.51937       -0.78927        0.00201
N          4.57727       -1.10343        0.00415
H          4.96436       -2.04691        0.00280
H          5.37477       -0.46784        0.01174
N          3.10761        0.44848        0.00483
C          0.10356       -1.46730       -0.00672
C         -0.93075       -0.45592       -0.00250
H         -0.11135       -2.53175       -0.01127
H         -3.26612        2.78232       -0.00453
H         -4.59517       -0.42452        0.00146
