25
Coordinates from ORCA-job ./opt_b97-3c_parallel
N         -2.88626       -3.02140       -0.40236
C         -2.55731       -1.93704       -0.25290
C         -2.12036       -0.58117       -0.10784
C         -3.33421        0.08850       -0.04558
N         -3.73478        1.36527        0.08703
C         -2.71952        2.28399        0.11860
N         -1.43958        2.29138        0.01562
C         -0.53450        1.37588        0.00757
C          0.73231        1.91334        0.02501
C          1.81707        0.99000        0.00083
N          3.09956        1.32666       -0.01109
C          3.69433        0.07033       -0.04599
N          4.79500        0.16801       -0.09025
H          5.48508       -0.56519        0.07532
H          5.32342        0.98345       -0.40133
C          2.89710       -1.05529       -0.03382
C          1.68837       -0.41115       -0.02887
C          0.33072       -0.93986       -0.05381
C          0.43692       -2.37366       -0.06802
N          0.53208       -3.05952        0.84183
C         -0.75377       -0.05744       -0.04770
H          3.10097       -1.86594        0.66427
H          0.91972        2.98477        0.04732
H         -3.37829        3.15728        0.24385
H         -4.43080       -0.01014       -0.05233
