29
Coordinates from ORCA-job ./opt_b97-3c_parallel
N         -4.62522       -1.27060        0.06454
C         -3.70060       -0.59883        0.06038
C         -2.54025        0.27112        0.05856
C         -2.92468        1.58512        0.32133
C         -2.17375        2.74022        0.31737
C         -0.84245        2.87634       -0.00755
C          0.11815        1.89347       -0.22000
C          1.33736        2.48993       -0.73026
N          2.27603        2.98619       -1.15518
C         -0.00669        0.48353       -0.10280
C         -1.22983       -0.25916       -0.09794
C         -1.14277       -1.67480       -0.23570
C          0.05933       -2.36667       -0.25748
N          0.07950       -3.73071       -0.34964
C          1.21715       -1.63411       -0.09753
C          2.54871       -2.12032        0.07535
N          2.64277       -1.00673        0.21928
C          2.51028        0.10015        0.37043
N          3.53394        0.84587        0.87769
C          1.18510       -0.28334       -0.02078
H         -3.98214        1.75747        0.52478
H         -2.71485        3.66342        0.51220
H         -0.51396        3.91364       -0.08854
H         -2.02528       -2.30237       -0.30583
H         -0.77153       -4.21444       -0.61480
H          0.96471       -4.19441       -0.52062
H          2.88099       -3.12827        0.29140
H          4.47858        0.48095        0.86155
H          3.41387        1.84904        0.96829
