24
Coordinates from ORCA-job ./opt_b97-3c_parallel
N         -1.51746       -3.39312       -0.25565
C         -0.51609       -2.91040        0.00980
C          0.05324       -1.59355       -0.01374
C          1.48906       -1.78381        0.03346
C          2.30290       -0.60335        0.02679
C          3.64355       -0.40393        0.08541
C          3.82835        0.91872        0.05077
C          2.68485        1.60360       -0.03473
C          1.70244        0.66598       -0.05020
C          0.34080        0.85359       -0.09260
N         -0.12944        2.16848       -0.15832
C         -1.49285        2.38737       -0.14208
N         -2.78702        1.91082       -0.07331
C         -2.81343        0.53251       -0.01226
N         -3.82671        0.11632        0.10532
N         -1.80986       -0.28256       -0.06703
C         -0.51220       -0.32347       -0.05896
H          1.95253       -2.76687        0.08271
H          4.41549       -1.16738        0.15931
H          4.80835        1.38984        0.09016
H          2.57382        2.68438       -0.07508
H         -1.41513        3.48389       -0.20860
H         -4.63353        0.69183        0.34434
H         -4.06385       -0.83803        0.37474
