30
Coordinates from ORCA-job ./opt_b97-3c_parallel
N         -5.37184       -1.90850        0.03540
C         -4.32645       -1.45090       -0.02790
C         -3.00323       -0.87924       -0.08854
C         -1.96924       -1.75514       -0.36444
C         -0.60890       -1.50121       -0.39724
C          0.11271       -0.31935       -0.19607
C         -0.41617        0.98535       -0.04441
C          0.51255        2.04352       -0.07900
C          1.87085        1.84464       -0.24309
C          2.45695        0.54339       -0.23533
C          3.81790        0.11754       -0.08326
N          4.93894        0.89617       -0.07322
C          3.70670       -1.30195        0.08672
C          2.34019       -1.74173        0.12731
N          2.21660       -3.04341        0.52457
C          1.55344       -0.56709       -0.14816
C         -1.78679        1.32486        0.10526
C         -2.17732        2.70734        0.30839
N         -2.50182        3.79151        0.46829
C         -2.90526        0.48801        0.12301
H         -2.24634       -2.79316       -0.54182
H         -0.03043       -2.39531       -0.60745
H          0.21186        3.08487       -0.02006
H          2.54417        2.69729       -0.28337
H          5.84738        0.44794       -0.11734
H          4.86476        1.86250       -0.37128
H          4.56318       -1.96048        0.19592
H          1.30492       -3.37269        0.82291
H          3.03585       -3.52898        0.87196
H         -3.86264        0.98038        0.30417
