29
Coordinates from ORCA-job ./opt_b97-3c_parallel
N          5.19357       -0.78970       -0.39010
C          4.12543       -0.41584       -0.22945
C          2.76421        0.05227       -0.04667
C          1.81100       -0.96644       -0.01309
C          0.40585       -0.94154        0.07984
C         -0.23677       -2.21035        0.12688
N          0.42885       -3.40008        0.24269
N         -1.56807       -2.39451        0.11289
C         -2.32867       -1.29732        0.05236
C         -3.76650       -1.41765       -0.00104
C         -4.05840       -0.00499       -0.08671
C         -2.93658        0.80620       -0.04407
C         -3.05025        2.23855       -0.16314
N         -3.15922        3.37338       -0.24947
C         -1.81756       -0.01525        0.04883
C         -0.41857        0.21443        0.10125
C          0.04155        1.53354        0.20748
C          1.32474        2.05834        0.23296
C          2.55094        1.42640        0.09682
N          3.62900        2.27651        0.11854
H          2.26512       -1.94834       -0.10733
H          1.37277       -3.38103        0.61132
H         -0.12612       -4.22538        0.43972
H         -4.32200       -2.22121       -0.47493
H         -5.05072        0.42768       -0.19298
H         -0.68648        2.31535        0.32758
H          1.35903        3.14040        0.35264
H          4.54674        1.91803       -0.12480
H          3.47464        3.27817        0.08520
