24
Coordinates from ORCA-job ./opt_b97-3c_parallel
N         -1.37789        3.88328        0.00319
C         -0.82697        2.88160        0.00280
C         -0.14048        1.60764        0.00136
C          1.25027        1.70358        0.00019
C          1.98865        0.53733       -0.00124
C          3.40710        0.39400       -0.00279
N          3.00660       -0.66143       -0.00315
C          2.44659       -1.64125       -0.00341
C          1.39067       -0.67262       -0.00154
C         -0.00917       -0.83673       -0.00044
C         -0.45408       -2.16749       -0.00103
C         -1.73750       -2.69399       -0.00052
C         -2.94549       -2.02377        0.00084
C         -3.14849       -0.65686        0.00223
C         -2.21457        0.37127        0.00250
C         -0.80491        0.34388        0.00109
H          1.75090        2.66987        0.00030
H          4.16868        1.16456       -0.00138
H          2.41445       -2.72345       -0.00294
H          0.30254       -2.94397       -0.00211
H         -1.80292       -3.77971       -0.00130
H         -3.83991       -2.64282        0.00084
H         -4.18946       -0.34182        0.00344
H         -2.71118        1.33522        0.00395
