29
Coordinates from ORCA-job ./opt_b97-3c_parallel
N          0.99115        3.74013       -0.76892
C          0.47178        2.75867       -0.50058
C         -0.21255        1.52551       -0.18011
C         -1.59722        1.63565       -0.19722
C         -2.42925        0.51005        0.06481
C         -3.73037       -0.10162        0.09821
N         -4.65907        0.89118        0.22219
C         -4.11186       -1.48467        0.01135
C         -2.72109       -1.82031       -0.04835
C         -1.80378       -0.77361       -0.01747
C         -0.39645       -0.90507       -0.01858
C          0.12724       -2.21066       -0.00775
C          1.50821       -2.59352       -0.05033
N          2.47989       -2.13220        0.19061
C          2.61023       -1.03774        0.20449
N          3.93212       -1.14778       -0.15701
C          1.83363        0.18533        0.16312
C          2.67571        1.23130        0.71186
N          3.34727        2.04235        1.15745
C          0.42373        0.26588       -0.00728
H         -2.08973        2.58821       -0.38334
H         -5.61907        0.64086        0.43159
H         -4.34562        1.82722        0.45454
H         -4.84259       -1.98460        0.63923
H         -2.46535       -2.87200       -0.10983
H         -0.45457       -3.12460        0.00806
H          1.95032       -3.46096       -0.52859
H          4.50289       -0.30952       -0.17822
H          4.41272       -2.03015       -0.01867
