28
Coordinates from ORCA-job ./opt_b97-3c_parallel
N         -4.06113        1.31757       -0.14388
C         -3.05441        0.85850       -0.07466
C         -1.88294        1.56576       -0.05021
C         -0.44177        1.18669        0.07028
C          0.53378        2.19587        0.05533
C          1.88599        1.88904        0.17389
C          2.23537        0.56845        0.41285
C          3.45380       -0.13281        0.10118
N          4.46038        0.30669        0.18937
C          3.23682       -1.44515       -0.19278
C          1.94348       -1.69500       -0.07187
C          1.33395       -0.54290        0.31872
C         -0.05601       -0.16458        0.17588
N         -0.96768       -1.14952        0.17191
C         -2.32961       -1.35149        0.09007
N         -2.52132       -2.43782        0.13182
N         -3.40755       -0.48367       -0.02298
H         -5.05446        1.07675       -0.14806
H         -4.04512        2.33818       -0.19738
H         -1.90459        2.65252       -0.12381
H          0.24936        3.23731       -0.08311
H          2.64767        2.65924        0.06799
H          5.31445       -0.24893        0.18644
H          4.74983        1.28300        0.21191
H          3.99749       -2.17063       -0.47723
H          1.46724       -2.65904       -0.23134
H         -3.37478       -2.99607        0.17351
H         -1.75643       -3.11330        0.11192
