27
Coordinates from ORCA-job ./opt_b97-3c_parallel
N         -5.00595       -0.57896       -0.39440
C         -3.87141       -0.57463       -0.25136
C         -2.43569       -0.55983       -0.08376
C         -1.96152       -1.87974        0.23979
N         -1.02442       -2.44812        0.11120
C         -0.10816       -1.93550       -0.22498
C          0.51482       -0.64445       -0.07828
C         -0.20639        0.57880       -0.03320
C          0.56776        1.77307        0.12257
N          0.02875        3.01854        0.30898
C          1.96792        1.73959        0.17348
C          2.63008        0.52738        0.08573
N          3.95978        0.29263        0.10391
C          4.08432       -0.82542        0.00804
C          2.88180       -1.62155       -0.08548
C          1.90379       -0.60886       -0.02375
C         -1.62957        0.59317       -0.16606
N         -2.30320        1.75741       -0.44346
H         -2.46529       -2.65689        0.80448
H          0.35713       -2.91460       -0.26236
H          0.64054        3.75957        0.63289
H         -0.94879        3.07405        0.57510
H          2.54187        2.65653        0.29163
H          5.12122       -1.13947       -0.00412
H          2.79453       -2.69799       -0.18901
H         -3.27006        1.68974       -0.74351
H         -1.76210        2.54267       -0.78982
