31
Coordinates from ORCA-job ./opt_b97-3c_parallel
N          5.60485        1.10562       -1.12985
C          4.61313        0.67970       -0.75417
C          3.35276        0.14208       -0.29990
C          3.31909       -1.22548       -0.09099
C          2.27535       -1.96598        0.42690
C          0.94351       -1.60371        0.60465
N          0.24822       -2.53991        1.32014
C          0.30368       -0.39024        0.26513
C          0.96690        0.86867        0.20538
C          2.34065        1.06192       -0.04211
C          0.19593        2.05709        0.34312
N          0.75428        3.29742        0.51085
C         -1.19338        2.03221        0.33409
C         -1.81746        0.81793        0.15022
C         -3.16378        0.57892       -0.06867
C         -4.21103        1.56194       -0.16948
N         -5.03541        2.34776       -0.26270
C         -3.30229       -0.77231       -0.32215
C         -2.04688       -1.36035       -0.23107
C         -1.82581       -2.71085       -0.68909
N         -1.67035       -3.78425       -1.04999
C         -1.10728       -0.36657        0.10659
H          4.24605       -1.77332       -0.25763
H          2.53904       -2.98988        0.69015
H         -0.74909       -2.42324        1.45750
H          0.64932       -3.46292        1.45130
H          2.67839        2.08771       -0.16469
H          0.14043        4.06144        0.77220
H          1.71068        3.34296        0.84596
H         -1.77151        2.95216        0.39917
H         -4.22107       -1.27142       -0.62278
