28
Coordinates from ORCA-job ./opt_b97-3c_parallel
N         -6.03211       -0.14450        0.60546
C         -5.20591        0.53541        0.20349
C         -3.82549        0.34700       -0.11215
C         -2.92085        1.45794       -0.14880
C         -1.56841        1.16700       -0.15243
C         -0.59805        2.15934       -0.15736
N          0.72142        1.88307       -0.14351
C          1.17385        0.59879       -0.15317
C          2.57057        0.39901       -0.12350
C          3.50667        1.50507       -0.13063
N          4.25515        2.36959       -0.12499
C          3.19704       -0.90508       -0.07179
N          4.38525       -1.17863        0.55538
N          2.94502       -1.96335       -0.25729
C          1.92618       -2.34130       -0.45036
C          0.59021       -1.83213       -0.31131
C          0.25355       -0.47964       -0.19116
C         -1.16273       -0.20582       -0.13385
C         -2.58780       -0.38486       -0.01364
N         -2.79998       -1.69451        0.31914
H         -3.26081        2.49144       -0.15934
H         -0.86170        3.21561       -0.16167
H          4.79367       -2.10299        0.47217
H          5.00067       -0.41257        0.80658
H          2.24244       -3.36141       -0.63615
H         -0.17720       -2.60133       -0.34675
H         -2.01118       -2.25273        0.62542
H         -3.72670       -1.97052        0.62741
