29
Coordinates from ORCA-job ./opt_b97-3c_parallel
N          4.44861        0.60460        0.10952
C          3.34546        0.30838        0.05842
C          1.95076       -0.08100       -0.02148
C          1.62618       -1.39557       -0.35052
N          2.56921       -2.35453       -0.61569
C          0.27697       -1.88590       -0.28758
C         -0.21901       -3.21717       -0.08378
C         -1.55625       -3.03433        0.39636
C         -1.90097       -1.64218        0.45668
N         -3.09821       -1.49699        1.09766
C         -0.76288       -0.91992       -0.05161
C         -0.40879        0.49880       -0.08019
C         -1.43143        1.44820       -0.35623
C         -2.70682        0.99336       -0.86572
N         -3.71527        0.65799       -1.28635
C         -1.35203        2.85205       -0.29979
C         -0.28650        3.64458        0.12669
C          0.97345        3.17409        0.61232
N          1.26311        2.14097        0.41242
C          0.93203        0.87068        0.13464
H          2.29151       -3.32967       -0.61686
H          3.54855       -2.13149       -0.47138
H          0.23529       -4.19270        0.06969
H         -2.21067       -3.85092        0.68795
H         -3.70250       -2.30764        1.17002
H         -3.54769       -0.58812        1.05426
H         -2.23573        3.40996       -0.60651
H         -0.38054        4.72784        0.13416
H          1.75381        3.72736        1.12150
