23
Coordinates from ORCA-job ./opt_b97-3c_parallel
N         -2.92954       -1.66709       -0.09556
C         -2.05663       -0.99437       -0.08567
N         -2.93285        0.01769       -0.25285
C         -2.77135        1.35852       -0.18741
N         -1.71131        2.13439        0.26153
C         -0.44720        1.59664        0.35426
C         -0.03873        0.41684       -0.34012
C         -0.63512       -0.82241        0.03348
C          0.12796       -2.03220        0.04767
C          1.50874       -1.91969       -0.04540
C          2.19708       -0.64327       -0.08463
C          3.54707       -0.52774        0.04855
C          3.49569        0.82931       -0.03215
N          2.41657        0.97707       -0.19197
C          1.39955        0.55420       -0.25140
H         -2.26922       -1.96781        0.61742
H         -3.85147       -1.67249        0.33783
H         -3.78745        1.75596       -0.32957
H         -0.11066        2.58739        0.69364
H         -0.32730       -3.01963        0.06635
H          2.12091       -2.81787       -0.08044
H          4.22476       -1.09932       -0.58084
H          4.31033        1.53779        0.17859
