31
Coordinates from ORCA-job ./opt_b97-3c_parallel
N         -1.24703        4.12623        0.61581
C         -1.21757        2.99647        0.44382
C         -1.16641        1.55853        0.23593
C          0.13408        1.07052        0.17278
C          0.65279       -0.22329        0.07082
C         -0.11343       -1.42303        0.06368
C          0.59143       -2.64627        0.24970
C          1.96993       -2.72842        0.35682
C          2.68812       -1.56747        0.21870
C          4.06363       -1.44068        0.19777
C          4.33391       -0.10577       -0.03135
C          3.12722        0.57637       -0.13274
C          3.10220        1.96214       -0.53384
N          3.09531        3.05719       -0.86004
C          2.07113       -0.34227        0.05198
C         -1.51864       -1.53551       -0.13288
N         -1.98355       -2.80907       -0.40538
C         -2.51909       -0.52864       -0.13152
C         -3.89601       -0.97564       -0.34787
N         -4.96977       -1.33463       -0.50992
C         -2.37040        0.85442        0.09928
N         -3.52360        1.61499        0.18267
H          0.85917        1.85242        0.32337
H          0.08479       -3.60151        0.34967
H          2.46559       -3.68573        0.50023
H          4.79254       -2.24138        0.29780
H          5.32366        0.32705       -0.15663
H         -2.93489       -2.91088       -0.74363
H         -1.31263       -3.50920       -0.70014
H         -3.45656        2.57038        0.51827
H         -4.41672        1.14164        0.27241
