23
Coordinates from ORCA-job ./opt_b97-3c_parallel
N         -0.21410       -3.09182        0.16216
C          0.10261       -1.81370       -0.11711
C          1.46252       -1.72788       -0.16889
C          2.00704       -0.47326       -0.06369
N          3.27700       -0.09544       -0.05787
C          3.13752        1.27693        0.05973
N          1.94120        1.79377        0.12824
C          1.23161        0.71348        0.04724
C         -0.22446        0.62152        0.01896
C         -0.88918        1.83992        0.09251
C         -2.29956        2.08376        0.07654
C         -3.25345        1.11545       -0.03688
N         -3.19840       -0.20528       -0.15302
C         -2.15361       -1.03396       -0.18366
C         -0.74509       -0.73835       -0.09036
H         -1.07321       -3.30781        0.66431
H          0.50383       -3.74584        0.46833
H          2.10331       -2.60032       -0.27628
H          4.03646        1.91090        0.09036
H         -0.32253        2.76141        0.17656
H         -2.60202        3.12324        0.15356
H         -4.31989        1.38593       -0.04853
H         -2.79712       -1.92105       -0.27973
