31
Coordinates from ORCA-job ./opt_b97-3c_parallel
N         -5.85892        0.05010       -0.59573
C         -4.77245       -0.22243       -0.36852
C         -3.39693       -0.57146       -0.10293
C         -3.15611       -1.91756        0.11371
C         -1.94131       -2.52545        0.35473
C         -0.67378       -1.96698        0.35938
C         -0.24372       -0.63912        0.19084
C         -1.08029        0.50426        0.09024
C         -2.48469        0.48230       -0.06593
C         -0.47340        1.79104        0.11325
N         -1.22546        2.94341        0.15694
C          0.92060        1.94017        0.12488
C          1.54314        3.25046        0.13837
N          2.02958        4.28412        0.15914
C          1.72108        0.80628        0.10638
C          3.15517        0.85700        0.06559
C          3.23650       -0.57988       -0.00884
N          4.58756       -0.77011       -0.13330
C          2.13607       -1.51361        0.09121
C          2.45215       -2.76062       -0.54140
N          2.53600       -3.88004       -0.32180
C          1.15802       -0.45232        0.14786
H         -4.01701       -2.58436        0.09793
H         -1.98133       -3.59903        0.52597
H          0.07692       -2.72165        0.55412
H         -2.97887        1.43534       -0.22754
H         -0.74967        3.81739        0.35697
H         -2.19800        2.87216        0.43594
H          3.74023        1.57391       -0.50516
H          5.17155        0.01654       -0.39475
H          4.91873       -1.70093       -0.36650
