32
Coordinates from ORCA-job ./opt_b97-3c_parallel
N          5.36623        1.66294        1.11754
C          4.35756        1.22874        0.79922
C          3.08554        0.65984        0.38754
C          3.10011       -0.72314        0.33632
C          2.10220       -1.62731       -0.01075
C          2.64210       -2.97393       -0.06768
N          3.08391       -4.02692       -0.11096
C          0.71348       -1.38901       -0.17043
C         -0.09643       -2.54637       -0.28992
C         -1.47279       -2.51419       -0.39997
C         -2.15359       -1.27119       -0.35542
C         -3.37894       -0.66013        0.08763
N         -4.42210       -1.54263        0.14345
C         -3.55757        0.71618        0.47072
C         -4.59390        1.67616        0.68634
N         -5.68294        1.80893        1.00843
C         -2.14056        0.92690        0.39216
C         -1.35476       -0.11245       -0.10291
C          0.07186       -0.11441       -0.19345
C          0.73057        1.13456       -0.37950
C         -0.01373        2.16075       -1.10291
N         -0.58078        2.97076       -1.67606
C          2.06091        1.50194       -0.06109
N          2.40093        2.83703       -0.17205
H          4.06775       -1.16972        0.57796
H          0.31382       -3.55058       -0.30436
H         -2.03635       -3.43980       -0.48907
H         -5.36356       -1.18727        0.27723
H         -4.30640       -2.47810       -0.23105
H         -1.72704        1.84640        0.79921
H          3.38127        3.09690       -0.11652
H          1.77111        3.46737       -0.65771
