33
Coordinates from ORCA-job ./opt_b97-3c_parallel
N          5.17377        0.76293        0.46727
C          4.08350        0.44613        0.32924
C          2.69535        0.03458        0.13767
C          2.46007       -1.34253        0.23857
N          3.49122       -2.19007        0.57697
C          1.30063       -2.00596       -0.12365
C          0.02755       -1.52319       -0.39850
N         -0.76709       -2.51593       -0.91287
C         -0.48078       -0.21669       -0.19634
C          0.32421        0.96125       -0.12663
C         -0.35023        2.20735       -0.04130
C         -1.72655        2.33126       -0.01590
C         -2.49428        1.19232       -0.04344
C         -3.92355        1.24435        0.03606
C         -4.01382       -0.18945        0.11451
N         -5.23848       -0.74695        0.34619
C         -2.88793       -1.08381        0.05023
C         -1.89766       -0.04953       -0.11089
C          1.74625        1.04449       -0.14616
N          2.29348        2.28449       -0.41651
H          3.36620       -3.19356        0.50415
H          4.42589       -1.81712        0.70835
H          1.40608       -3.08970       -0.19135
H         -1.63932       -2.24553       -1.35504
H         -0.32444       -3.36910       -1.23540
H          0.17559        3.15295        0.05111
H         -2.19002        3.31210        0.06257
H         -4.51035        1.94816        0.61815
H         -6.00627       -0.14214        0.61652
H         -5.28645       -1.72524        0.60901
H         -2.78373       -1.97409        0.66309
H          3.28993        2.33831       -0.60054
H          1.70270        2.98005       -0.85795
