28
Coordinates from ORCA-job ./opt_b97-3c_parallel
N         -5.21182        0.66753        0.32523
C         -4.10836        0.38951        0.21794
C         -2.70947        0.05315        0.09472
C         -1.77834        1.09594        0.02917
C         -0.37344        0.97039       -0.02011
C          0.42465        2.14095       -0.10088
N         -0.10986        3.39622       -0.18099
N          1.77894        2.13476       -0.11418
C          2.34026        0.91754       -0.04602
C          3.70279        0.57387       -0.01947
C          3.58875       -0.86447        0.07389
N          4.70227       -1.64804        0.15352
N          2.55296       -1.31369        0.09213
C          1.69056       -0.27242        0.02617
C          0.29615       -0.27554        0.03485
C         -0.39368       -1.53653        0.11834
N         -1.41640       -1.95268        0.10171
C         -2.33259       -1.34044        0.05895
N         -3.18202       -2.36026       -0.27736
H         -2.20315        2.09641        0.03564
H         -1.09038        3.49449       -0.41659
H          0.51113        4.16419       -0.41103
H          4.59694        1.18838       -0.03355
H          5.61232       -1.22161        0.28571
H          4.60430       -2.63738        0.35307
H          0.00073       -2.53206       -0.05399
H         -2.86913       -3.32177       -0.20241
H         -4.18085       -2.18724       -0.31380
