27
Coordinates from ORCA-job ./opt_b97-3c_parallel
N          5.09956        0.83380       -0.09174
C          4.07351        0.33323       -0.04518
C          2.77433       -0.28634        0.00533
C          2.52926       -1.62826        0.22460
C          1.15345       -1.81221        0.24965
C          0.52003       -0.58072        0.02530
C          1.54445        0.34491       -0.08672
C          1.29580        1.69368       -0.22271
C         -0.02692        2.10233       -0.17570
C         -1.09965        1.19557       -0.04788
C         -2.32694        1.86323        0.05190
C         -3.60792        1.37169        0.23242
C         -4.01905        0.05556        0.25096
C         -3.24509       -1.07398        0.06158
C         -1.86266       -1.20802       -0.07729
N         -1.53578       -2.50160       -0.37844
C         -0.85437       -0.20886       -0.02262
H          3.27983       -2.39831        0.38563
H          0.69420       -2.76876        0.47279
H          2.10317        2.41707       -0.30940
H         -0.21227        3.17305       -0.23069
H         -2.29617        2.95083        0.03069
H         -4.39262        2.11596        0.34764
H         -5.08638       -0.11063        0.37712
H         -3.82578       -1.99503        0.02463
H         -0.62446       -2.67190       -0.78845
H         -2.28509       -3.13192       -0.64115
