23
Coordinates from ORCA-job ./opt_b97-3c_parallel
N          4.36840        0.93846       -0.08819
C          3.32452        0.57479       -0.06774
C          2.07530        1.11875       -0.04582
C          0.73044        0.50096       -0.02558
C          1.45476       -0.74350       -0.03365
N          0.83941       -1.93839       -0.01926
C         -0.50506       -1.92109        0.00052
C         -1.35724       -0.84549        0.00520
C         -2.64985       -1.26060        0.00323
C         -3.76754       -0.36940        0.01338
C         -3.64185        1.00557        0.02331
N         -2.66224        1.93209        0.02302
C         -1.30454        1.64992        0.00859
C         -0.70347        0.35189       -0.00359
N          2.83548       -0.71825       -0.05661
H          5.22618        0.38473       -0.05621
H          4.67759        1.90989       -0.15038
H          1.92663        2.19761       -0.04093
H         -0.57936       -3.02025        0.00743
H         -2.90550       -2.31802       -0.00393
H         -4.75393       -0.82425        0.01382
H         -4.57086        1.59681        0.03260
H         -1.33581        2.75057        0.01217
