37
Coordinates from ORCA-job ./opt_b97-3c_parallel
N          5.44985       -1.14905        0.66699
C          4.36525       -0.86118        0.44499
C          2.97527       -0.49324        0.17721
C          2.60090        0.83225        0.48548
N          3.59958        1.61114        1.05268
C          1.36996        1.48236        0.20604
C          1.32085        2.87239        0.65495
N          1.29598        3.95354        1.02659
C          0.13798        0.90627       -0.21052
C         -0.96395        1.75053       -0.57169
C         -0.78203        2.98388       -1.31507
N         -0.64605        3.94657       -1.91949
C         -2.29210        1.33612       -0.38089
N         -3.36623        2.15004       -0.64303
C         -2.49339        0.05749        0.10863
C         -3.71043       -0.57358        0.51006
N         -4.97438       -0.13504        0.77892
N         -2.93583       -1.39325        0.57000
C         -2.02938       -2.06253        0.62607
N         -1.79528       -3.32912        1.08086
C         -1.47816       -0.83122        0.14194
C         -0.13808       -0.48113       -0.13813
C          0.76833       -1.50354       -0.49268
C          0.19217       -2.63896       -1.20405
N         -0.24177       -3.52427       -1.78370
C          2.17338       -1.49796       -0.39524
N          2.82487       -2.65192       -0.79828
H          3.47241        2.61709        1.10173
H          4.54799        1.25125        1.08419
H         -3.19611        3.03823       -1.10270
H         -4.27047        1.71239       -0.78656
H         -5.59342       -0.71824        1.33057
H         -5.14796        0.86470        0.78956
H         -2.58250       -3.93852        1.26881
H         -0.92018       -3.77482        0.82699
H          2.30019       -3.42602       -1.19321
H          3.83506       -2.72117       -0.72778
