30
Coordinates from ORCA-job ./opt_b97-3c_parallel
N          3.52506       -1.52766       -1.06101
C          2.57766       -0.94988       -0.26559
C          2.69553        0.40241        0.21293
C          1.63279        1.30745        0.31574
N          2.02040        2.56458        0.69879
C          0.26686        0.97309        0.07939
C         -0.74884        1.96142       -0.09111
N         -0.51142        3.30482       -0.17799
N         -2.06101        1.68684       -0.28547
C         -2.41878        0.39439       -0.32101
C         -3.78583       -0.03501       -0.51760
C         -3.54788       -1.46856       -0.45689
C         -2.21507       -1.80312       -0.27085
C         -1.51582       -0.62639       -0.18372
C         -0.15795       -0.38096        0.02133
C          0.74180       -1.49652        0.20957
N          0.54512       -2.48364        1.13679
N          1.78370       -1.70052       -0.09802
H          3.47019       -2.51767       -1.27129
H          4.39706       -1.04392       -1.24351
H          3.71497        0.70819        0.44072
H          1.30351        3.19588        1.04121
H          2.96072        2.68775        1.05798
H         -1.26500        3.89167       -0.51748
H          0.43714        3.59965       -0.38380
H         -4.67287        0.48862       -0.17676
H         -4.29985       -2.24913       -0.54075
H         -1.81273       -2.81018       -0.20104
H         -0.37412       -2.60341        1.54654
H          1.17726       -3.27622        1.15475
