33
Coordinates from ORCA-job ./opt_b97-3c_parallel
N          3.57928        3.88284       -0.72201
C          3.16574        2.83656       -0.52117
C          2.64688        1.51047       -0.28463
C          3.59380        0.51591       -0.12828
C          3.40879       -0.84127        0.09483
C          4.67201       -1.54063        0.25899
N          5.66834       -2.08291        0.40105
C          2.19759       -1.56627        0.14268
N          2.36318       -2.91843        0.36447
C          0.86168       -1.08229        0.03515
C         -0.16002       -2.06364        0.00085
C         -1.51416       -1.76186       -0.01389
C         -2.46693       -2.84396       -0.07466
N         -3.20987       -3.71053       -0.12892
C         -1.90940       -0.43504        0.05903
C         -3.29045       -0.02927        0.11550
C         -4.60316       -0.44271        0.51514
N         -5.54830       -0.68686       -0.08032
C         -2.81572        1.32443       -0.03995
N         -3.71881        2.27202       -0.44480
C         -1.50728        1.88389        0.19478
C         -1.35768        2.68131        1.37695
N         -0.98298        3.76178        1.36975
C         -0.94909        0.56061        0.05940
C          0.44002        0.27503       -0.02799
C          1.26653        1.39705       -0.20314
H          4.63033        0.85379       -0.18067
H          1.56911       -3.45995        0.68520
H          3.28618       -3.25450        0.62043
H          0.06527       -3.12585       -0.03557
H         -3.47916        3.24827       -0.30571
H         -4.70384        2.02766       -0.41802
H          0.77425        2.35469       -0.34168
