30
Coordinates from ORCA-job ./opt_b97-3c_parallel
N         -5.62172       -1.84632        1.00646
C         -4.67705       -1.26537        0.73208
C         -3.49215       -0.53265        0.37001
C         -3.44678        0.79268       -0.00239
C         -2.08899        1.22361       -0.25152
C         -1.35972        2.44996       -0.25526
N         -2.01681        3.64202       -0.35983
C          0.02215        2.40780       -0.16080
C          0.72623        1.20066       -0.10729
N          2.05335        1.32268        0.00130
C          3.02392        0.84084        0.11316
N          3.85539        1.61170        0.87617
C          3.22309       -0.55121       -0.15745
C          4.58647       -0.99514       -0.32100
N          5.66176       -1.35891       -0.45528
C          2.19004       -1.47607       -0.32021
C          0.79366       -1.28010       -0.27378
C          0.11184       -2.50724       -0.61900
N         -0.40009       -3.48820       -0.90820
C          0.06974       -0.05468       -0.12587
C         -1.34926       -0.00981       -0.03136
C         -2.21407       -1.02659        0.37301
H         -4.35979        1.38113       -0.05222
H         -2.99697        3.63043       -0.61982
H         -1.47910        4.47252       -0.58297
H          0.57528        3.34556       -0.14483
H          3.64984        2.59764        0.99347
H          4.81037        1.30763        1.02995
H          2.52936       -2.49246       -0.52435
H         -1.96242       -2.02573        0.71143
