27
Coordinates from ORCA-job ./opt_b97-3c_parallel
N          4.33974        1.07024       -0.02257
C          3.24249        0.90528       -0.03317
C          2.34905        1.95546       -0.03358
C          0.91035        1.75789       -0.03821
C          0.23434        0.53474       -0.04373
C          0.84695       -0.78638       -0.06143
C          2.20974       -0.96377       -0.05626
N          3.36088       -0.38297       -0.03856
C          0.02713       -1.98063       -0.08250
N         -0.00482       -3.08248       -0.10274
N         -1.31351       -1.86263       -0.08119
C         -1.91166       -0.66317       -0.05529
N         -3.25080       -0.38381       -0.04717
C         -3.29671        1.00792       -0.02000
N         -4.34148        1.38197       -0.00862
C         -2.06604        1.63999       -0.00570
C         -1.21929        0.56620       -0.03393
H          5.16446        0.56093        0.30518
H          4.70757        1.96801       -0.34442
H          2.70924        2.98309       -0.02815
H          0.33602        2.67945       -0.03846
H          2.81072       -1.88764       -0.06593
H         -0.58195       -3.81416        0.31491
H          0.69704       -3.57210       -0.65797
H         -4.63384        2.36200       -0.02377
H         -5.21715        0.85520        0.02390
H         -1.88527        2.48161        0.66215
