31
Coordinates from ORCA-job ./opt_b97-3c_parallel
N         -0.30526        4.24560        0.00380
C          0.07564        3.16867       -0.00294
C          0.49816        1.79504       -0.02854
C          1.89382        1.46374       -0.20129
N          2.71076        2.13107       -0.53548
C          2.31524        0.12427        0.09217
C          3.52420       -0.48375        0.13134
C          3.28040       -1.78392        0.25747
C          1.98372       -2.10015        0.27080
N          1.61373       -3.36341        0.54091
C          1.33773       -0.89988        0.09412
C         -0.02058       -0.63253       -0.07732
C         -0.86913       -1.72220       -0.30288
C         -2.32075       -1.76092       -0.37510
N         -3.04957       -2.56293       -0.57070
N         -3.25246       -0.79259       -0.01111
C         -2.84837        0.49441        0.23885
N         -3.65257        1.16928        0.57469
N         -1.70742        0.99155       -0.06843
C         -0.45365        0.69396       -0.05593
H          3.71873        2.03279       -0.41853
H          2.52579        3.13214       -0.58882
H          4.50094       -0.00668        0.11309
H          4.07565       -2.51628        0.37478
H          2.31163       -4.03078        0.86801
H          0.76112       -3.54392        1.06669
H         -0.44929       -2.69718       -0.50481
H         -2.45938       -3.25167       -1.03672
H         -3.99357       -2.71384       -0.92311
H         -4.58665        0.80951        0.76792
H         -3.62976        2.12023        0.94169
