33
Coordinates from ORCA-job ./opt_b97-3c_parallel
N          3.42902        3.07048       -1.13601
C          2.83778        2.14794       -0.80908
C          2.07669        0.99230       -0.38398
C          2.86946        0.01242        0.32214
N          3.64808        0.30034        1.40996
N          2.86538       -1.09084        0.24296
C          2.01291       -1.70222       -0.10516
N          2.61766       -2.72424       -0.78302
C          0.58083       -1.53929        0.00047
C         -0.16113       -2.68656        0.29564
C         -1.54342       -2.63410        0.38873
C         -2.18367       -1.41581        0.22085
C         -3.60434       -1.30024        0.35570
C         -3.46523        0.11875        0.14538
N         -4.75571        0.56869        0.22985
C         -2.28327        0.92821       -0.03620
C         -2.19262        1.95453        0.96095
N         -2.26184        3.09484        0.95861
C         -1.46758       -0.26040       -0.05992
C         -0.05671       -0.29071       -0.21467
C          0.68776        0.86405       -0.58892
N          0.06860        1.90641       -1.23490
H          3.88711        1.26627        1.60557
H          4.25133       -0.42033        1.78993
H          3.61958       -2.85313       -0.69291
H          2.06506       -3.51297       -1.09816
H          0.34193       -3.63930        0.44648
H         -2.11228       -3.53409        0.61077
H         -4.33647       -1.94016       -0.12902
H         -5.45789       -0.05157        0.61702
H         -4.90056        1.56670        0.34295
H         -0.86576        1.77160       -1.60457
H          0.63977        2.64272       -1.63643
