28
Coordinates from ORCA-job ./opt_b97-3c_parallel
N          4.30529       -0.38712       -0.04442
C          3.26049       -0.03597       -0.05570
N          3.04085        1.32136       -0.16484
C          1.71413        1.16071       -0.13896
N          0.83143        2.17283       -0.23997
C         -0.48068        1.87880       -0.19425
N         -1.30817        2.96144       -0.30998
C         -0.97207        0.57127       -0.04074
C         -2.39970        0.36235        0.10538
N         -3.07001        0.73446        0.90604
N         -2.99099       -0.44654       -0.36622
C         -2.68462       -1.44744       -0.73287
C         -1.77611       -2.33040       -0.22457
C         -0.53519       -1.96334        0.11820
N          0.29760       -2.92941        0.54326
C         -0.06367       -0.51198        0.01930
C          1.30618       -0.16247       -0.01350
N          2.31812       -1.03961        0.03340
H          4.79102        0.47106        0.20887
H          4.68413       -1.12926        0.53939
H         -2.28458        2.79911       -0.53119
H         -0.89934        3.84257       -0.60281
H         -2.62891        1.63544        1.08010
H         -4.07644        0.88437        0.92398
H         -3.69475       -1.88371       -0.75756
H         -2.06991       -3.37525       -0.13982
H          0.12633       -3.89985        0.28784
H          1.30464       -2.77757        0.52818
