28
Coordinates from ORCA-job ./opt_b97-3c_parallel
N         -4.77694        0.83748       -0.14504
C         -3.71250        0.42392       -0.09132
C         -2.36081       -0.08265       -0.00829
C         -2.34723       -1.46320        0.39962
N         -1.68256       -2.32386        0.21140
C         -0.63270       -2.16869       -0.08873
C          0.41697       -1.17828       -0.03212
C          1.74697       -1.64772        0.02161
N          2.03144       -2.98707        0.05908
C          2.81669       -0.75987        0.03927
C          2.53315        0.59172        0.03974
C          3.43209        1.64107        0.13525
C          2.68606        2.80614        0.17981
C          1.34106        2.46746        0.10092
C          1.23837        1.07734       -0.00964
C          0.12054        0.21283       -0.08210
C         -1.20967        0.70225       -0.21163
N         -1.43158        1.99483       -0.60980
H         -3.17843       -2.07971        0.72482
H         -0.61116       -3.15230       -0.54519
H          2.98925       -3.27098        0.23188
H          1.29320       -3.63002        0.32509
H          3.84484       -1.11228        0.08404
H          4.51381        1.56424        0.20145
H          3.08298        3.81214        0.29109
H          0.53776        3.19256        0.17036
H         -2.36779        2.24502       -0.91033
H         -0.65951        2.49217       -1.03967
