27
Coordinates from ORCA-job ./opt_b97-3c_parallel
N          5.25207        0.99625       -0.07256
C          4.21122        0.52262       -0.03215
C          2.89454       -0.08491        0.00067
C          2.95840       -1.46309        0.16867
C          1.93298       -2.38542        0.16304
C          0.57419       -2.16588        0.04311
C         -0.14594       -0.96635       -0.01508
C          0.37683        0.36109       -0.03529
C         -0.56456        1.42856        0.02517
C         -1.94063        1.23120        0.04731
C         -2.85481        2.34028        0.14734
N         -3.57921        3.21997        0.24232
C         -2.38501       -0.06886       -0.02229
C         -3.68294       -0.61671       -0.04352
C         -3.38039       -2.02634       -0.09713
N         -2.27974       -2.27322       -0.08712
C         -1.54618       -1.13297       -0.04850
C          1.74726        0.73330       -0.11809
N          2.02188        2.06154       -0.36611
H          3.95092       -1.89964        0.27567
H          2.23533       -3.42502        0.25814
H          0.00716       -3.09297        0.04616
H         -0.25108        2.46810        0.08739
H         -4.65687       -0.13902       -0.04924
H         -4.05366       -2.87352       -0.14981
H          2.97487        2.31107       -0.61191
H          1.28444        2.63172       -0.76495
