29
Coordinates from ORCA-job ./opt_b97-3c_parallel
N         -0.41267       -4.10685       -0.83338
C         -0.00926       -3.06318       -0.60633
C          0.48229       -1.72886       -0.35673
C          1.87937       -1.61381       -0.40626
C          2.44258       -0.35099       -0.33176
C          3.77276        0.10611       -0.07493
N          4.62530       -0.46398        0.32509
N          3.13075        1.01143        0.10187
C          2.39746        1.83588        0.31249
C          1.66022        0.78970       -0.17397
C          0.22687        0.68562       -0.12118
N         -0.48244        1.82112       -0.15315
C         -1.74317        2.36763       -0.12944
N         -1.69303        3.46237       -0.26145
N         -2.94333        1.69073        0.06811
C         -2.84727        0.30293        0.15175
N         -3.90031        0.64784        0.35293
C         -1.88145       -0.69230        0.02813
C         -2.45576       -1.63379        0.18924
N         -2.93153       -2.36256        0.93322
C         -0.37180       -0.59531       -0.15536
H          2.51782       -2.49220       -0.49323
H          4.77712       -1.46396        0.20387
H          5.54374       -0.04872        0.47257
H          2.89584        2.72975        0.71812
H         -0.83698        3.97344       -0.48206
H         -2.45484        4.08471       -0.53496
H         -4.81382        1.09888        0.45601
H         -4.07135       -0.30908        0.67833
