25
Coordinates from ORCA-job ./opt_b97-3c_parallel
N          0.00328        3.41528        0.12115
C          0.33072        2.08991        0.04748
N          1.66462        1.87276        0.06295
C          2.02673        0.58377        0.00715
C          3.32460        0.04300        0.00117
C          3.01743       -1.36696       -0.06422
N          1.92182       -1.63981       -0.09071
C          1.20067       -0.49332       -0.04997
C         -0.18651       -0.28505       -0.05993
C         -1.11535       -1.39821       -0.11289
N         -0.79806       -2.72158        0.04536
N         -2.19585       -1.62014       -0.11221
C         -3.00890       -0.87488       -0.13578
C         -3.10128        0.55782       -0.13372
C         -2.00678        1.42222       -0.06887
C         -0.64307        1.05968       -0.02416
H          0.73900        4.07306        0.35299
H         -0.94758        3.66550        0.36705
H          4.29696        0.52219        0.03069
H          3.68863       -2.21669       -0.09477
H          0.17184       -3.00128        0.14787
H         -1.52108       -3.43013        0.09624
H         -3.77963       -1.59986        0.10048
H         -4.11108        0.95628       -0.17875
H         -2.26876        2.47563       -0.06602
