28
Coordinates from ORCA-job ./opt_b97-3c_parallel
N         -2.12168       -4.21078       -0.28515
C         -1.94301       -3.21676        0.25441
C         -1.50800       -1.85776        0.14904
C         -2.50397       -0.97182       -0.22788
C         -2.32779        0.44677       -0.25638
C         -3.40755        1.30027       -0.64818
N         -4.29259        1.96732       -0.92900
C         -1.23785        1.06753        0.25805
N         -1.37099        1.65594        1.46210
C          0.04323        0.79658       -0.10097
C          0.75725        1.92023       -0.41940
N          0.62041        3.20876       -0.77620
C          2.23836        1.90973       -0.42628
C          2.80289        0.61402       -0.16766
N          4.09314        0.31850       -0.15305
C          4.02309       -1.04381        0.08745
N          2.83729       -1.57999        0.19886
C          2.04385       -0.56874        0.04217
C          0.65524       -0.50019        0.07470
C         -0.07696       -1.65901        0.31193
H         -3.50002       -1.33323       -0.47333
H         -0.66228        2.32342        1.76387
H         -2.27495        2.04216        1.73011
H          1.40415        3.71933       -1.17919
H         -0.23137        3.52375       -1.23723
H          3.08502        2.57186       -0.60439
H          4.83393       -1.77970        0.19708
H          0.48371       -2.56519        0.52466
