29
Coordinates from ORCA-job ./opt_b97-3c_parallel
N         -3.42329        3.34750       -0.70486
C         -2.63730        2.54544       -0.50375
C         -1.66025        1.51736       -0.25826
C         -0.33620        1.86516        0.01147
C          0.64917        0.89827        0.22445
C          1.99242        1.36864        0.52600
N          2.55174        2.25079        0.87833
N          3.20621        0.84591        0.08563
C          3.19301       -0.42748       -0.45615
N          4.24494       -0.59649       -0.74505
N          2.31407       -1.37697       -0.55380
C          1.29746       -1.49700        0.24439
N          1.41271       -2.52974        0.61799
C          0.29622       -0.45799        0.14440
C         -1.09193       -0.80676       -0.10102
N         -1.64964       -2.00946       -0.00643
C         -2.99641       -1.70718       -0.18774
N         -3.78445       -2.48087       -0.15918
N         -3.27407       -0.44060       -0.35993
C         -2.12413        0.14894       -0.27707
H         -0.06702        2.92099        0.04559
H          1.85952        2.79991        1.38778
H          3.43099        2.75947        0.97178
H          4.95997        0.12992       -0.79869
H          4.71067       -1.46038       -1.02376
H          2.14207       -3.24029        0.55048
H          0.65589       -2.96158        1.14670
H         -3.78851       -3.49357       -0.03288
H         -4.76579       -2.21150       -0.24457
