28
Coordinates from ORCA-job ./opt_b97-3c_parallel
N         -0.44893        4.34071       -0.02239
C         -0.46925        3.19770       -0.01247
C         -0.51425        1.75281       -0.00666
C         -1.80114        1.21838       -0.01436
C         -1.94079       -0.15435       -0.01855
C         -3.14622       -0.91340       -0.02699
N         -4.48187       -0.64275        0.00020
N         -2.32009       -1.68187       -0.04154
C         -1.38008       -2.30762       -0.05404
C         -0.86676       -0.97067       -0.02083
C          0.45985       -0.49505       -0.00496
C          1.44877       -1.49177       -0.00019
C          2.83720       -1.40206        0.02238
N          3.52361       -2.58483        0.02698
C          3.61227       -0.25464        0.04276
C          3.18382        1.05938        0.04069
C          1.89255        1.56763        0.02255
C          0.64349        0.91647        0.00464
H         -2.68032        1.85887       -0.02081
H         -5.14400       -1.39719        0.14161
H         -4.79911        0.30736        0.15624
H         -0.91673       -3.24402        0.23096
H          1.09584       -2.51808       -0.01305
H          3.02164       -3.44432       -0.16646
H          4.52491       -2.56921       -0.13296
H          4.69199       -0.39171        0.06106
H          3.97658        1.80402        0.05619
H          1.90822        2.65213        0.02683
