32
Coordinates from ORCA-job ./opt_b97-3c_parallel
N         -4.23357        2.82736        0.18210
C         -3.49447        1.95572        0.15138
C         -2.54493        0.86092        0.08238
C         -3.12813       -0.40350       -0.31369
N         -4.29874       -0.54606       -1.01257
N         -2.87421       -1.46654       -0.15319
C         -1.87074       -1.81609        0.14625
N         -2.19264       -2.89805        0.91988
C         -0.51752       -1.34017        0.00022
C          0.46126       -2.31782       -0.23954
C          1.80641       -1.98199       -0.30122
C          2.13395       -0.65226       -0.10363
C          3.40056       -0.02778       -0.11436
C          4.69472       -0.61088       -0.28074
N          5.67568       -1.03287       -0.68766
C          2.94378        1.32509        0.10343
N          3.81156        2.37504        0.18428
N          1.84506        1.52171        0.21021
C          1.20641        0.33085        0.10992
C         -0.17838        0.03192        0.14874
C         -1.16375        1.05209        0.30566
N         -0.78849        2.32445        0.66517
H         -4.88345        0.26982       -1.16000
H         -4.75106       -1.45303       -1.03528
H         -1.45489       -3.50256        1.26468
H         -3.13635       -3.26828        0.89761
H          0.17251       -3.35846       -0.36999
H          2.56909       -2.73476       -0.48778
H          4.78990        2.24179       -0.04626
H          3.45010        3.32196        0.21280
H         -1.46960        3.07555        0.63824
H          0.19633        2.55789        0.72957
