27
Coordinates from ORCA-job ./opt_b97-3c_parallel
N         -5.13585        1.62542       -0.01404
C         -4.11154        1.11773       -0.02069
C         -2.82415        0.46196       -0.02085
C         -1.75340        1.41278        0.00750
N         -0.67275        1.24271        0.00789
C          0.22804        0.25016        0.00156
C         -0.12561       -1.11746       -0.01176
C          0.89574       -2.08813       -0.01217
C          2.24446       -1.73203       -0.00447
C          2.55492       -0.37960        0.00345
C          3.83197        0.25018        0.00586
N          5.11872       -0.20001       -0.00894
N          3.09439        1.10911        0.01349
C          2.22847        1.84111        0.01738
C          1.59093        0.56536        0.00785
C         -1.44012       -1.61842       -0.02960
C         -2.66456       -0.93158       -0.03718
N         -3.78687       -1.71859       -0.06549
H         -1.80272        2.49547        0.00731
H          0.64441       -3.14624       -0.02033
H          3.02611       -2.48750       -0.00610
H          5.87916        0.45620       -0.14507
H          5.30446       -1.18589       -0.15357
H          1.77537        2.82451       -0.00250
H         -1.52649       -2.70373       -0.04254
H         -4.69339       -1.28703        0.08198
H         -3.69536       -2.71548        0.09485
