27
Coordinates from ORCA-job ./opt_b97-3c_parallel
N          5.55229       -1.24088        0.03924
C          4.47709       -0.85363        0.02228
C          3.11854       -0.37758        0.01751
C          2.94384        1.00296        0.38471
N          2.11767        1.73452        0.30011
C          1.06962        1.53421        0.01550
N          0.90601        2.61599       -0.80723
C          0.19794        0.38221       -0.01796
C          0.69404       -0.93136       -0.18932
C         -0.21058       -2.00269       -0.31101
C         -1.59049       -1.81005       -0.22268
C         -2.05229       -0.51979       -0.00602
C         -3.34860       -0.05258        0.14520
C         -4.55588       -0.83615        0.11636
N         -5.50717       -1.46931        0.09540
C         -3.27592        1.32156        0.34492
C         -1.93638        1.69611        0.31141
C         -1.18506        0.54700        0.09252
C          2.06002       -1.25837       -0.22444
H          3.67827        1.69691        0.77743
H          1.53986        3.40365       -0.73384
H          0.01598        2.76212       -1.26960
H          0.16160       -3.01441       -0.45729
H         -2.27733       -2.64920       -0.30567
H         -4.11963        1.98827        0.50543
H         -1.55484        2.70495        0.44647
H          2.32457       -2.29766       -0.41184
