28
Coordinates from ORCA-job ./opt_b97-3c_parallel
N          4.43156        0.02415        0.61532
C          3.35910       -0.31200        0.40559
C          2.01194       -0.78357        0.16721
C          1.99044       -2.19232        0.26415
C          0.91689       -3.07838        0.18513
C         -0.45306       -2.72539       -0.00558
N         -1.38640       -3.57230       -0.52441
N         -0.73852       -1.67743        0.02418
C         -0.42860       -0.37759        0.02567
C          0.90341        0.11376       -0.00228
C          1.04979        1.53299       -0.17636
C          2.28016        2.23471       -0.46485
N          3.23301        2.81646       -0.71240
C         -0.05891        2.38882       -0.19209
C         -1.32291        1.84911       -0.05507
C         -2.59073        2.49794       -0.07171
N         -2.83290        1.39348        0.00559
C         -2.89955        0.26564        0.07644
N         -3.88850       -0.66706        0.17971
C         -1.49642        0.52181        0.02745
H          2.94600       -2.69010        0.42837
H          1.09208       -4.14637        0.28885
H         -2.25148       -3.19032       -0.89022
H         -1.10691       -4.49468       -0.83855
H          0.05811        3.46241       -0.32880
H         -2.83378        3.51974        0.19311
H         -3.64086       -1.62655        0.39548
H         -4.84168       -0.36948        0.35238
