31
Coordinates from ORCA-job ./opt_b97-3c_parallel
N          0.67266       -3.64483       -0.42680
C          0.92887       -2.53998       -0.27661
C          1.29629       -1.14311       -0.09550
C          2.69772       -0.94700       -0.01399
N          3.54113       -2.03688       -0.01536
C          3.41052        0.24114        0.08834
C          2.95304        1.54379        0.05464
N          3.90560        2.52272        0.13766
C          1.64251        1.97045       -0.06536
C          0.44449        1.25644       -0.10003
N         -0.60484        2.12631       -0.15893
C         -1.87281        1.69315       -0.13608
N         -2.86158        2.63174       -0.19115
C         -2.13302        0.34170       -0.02994
C         -3.40006       -0.30386        0.09583
N         -4.75777       -0.33593        0.21765
N         -2.65351       -1.14412        0.13276
C         -1.75618       -1.82252        0.16938
C         -1.11258       -0.55210       -0.00056
C          0.25940       -0.16004       -0.06313
H          3.16350       -2.94719       -0.25814
H          4.53605       -1.88614       -0.13982
H          4.49273        0.14001        0.17551
H          3.60704        3.47844        0.30009
H          4.84531        2.26527        0.41895
H          1.53640        3.05595       -0.10074
H         -3.80715        2.31913       -0.38120
H         -2.60968        3.57478       -0.46444
H         -5.26194        0.52932        0.37540
H         -5.21254       -1.20284        0.48054
H         -1.74796       -2.47827        1.03215
