30
Coordinates from ORCA-job ./opt_b97-3c_parallel
N         -4.59253        1.65018       -0.87321
C         -3.56816        1.21616       -0.60832
C         -2.26391        0.65863       -0.24803
C         -2.18110       -0.74696       -0.18550
N         -3.34699       -1.43385       -0.48948
C         -1.07124       -1.53562        0.19512
C         -1.37125       -2.95192        0.42656
N         -1.62314       -4.05418        0.59969
C          0.29815       -1.16610        0.24979
N          1.15659       -2.22684        0.42362
C          2.49262       -2.11557        0.35918
C          3.04315       -0.90428        0.02867
C          4.36489       -0.59674       -0.23415
C          4.39076        0.73802       -0.60110
C          3.09129        1.22886       -0.54526
C          2.24100        0.20591       -0.11123
C          0.83384        0.14825        0.10424
C          0.11216        1.35357        0.28843
C          0.86360        2.48581        0.81875
N          1.42939        3.38313        1.24681
C         -1.27104        1.58732        0.12064
N         -1.69786        2.89842        0.26765
H         -3.39339       -2.43654       -0.33936
H         -4.21267       -0.92164       -0.62340
H          3.08126       -3.02262        0.48435
H          5.21127       -1.27872       -0.20140
H          5.27103        1.29624       -0.91070
H          2.81201        2.23496       -0.84507
H         -1.06474        3.58254        0.66942
H         -2.69372        3.09087        0.30694
