32
Coordinates from ORCA-job ./opt_b97-3c_parallel
N         -2.95764        2.91459        1.65232
C         -2.06877        2.41917        1.13176
C         -0.92370        1.80121        0.49339
C          0.17323        2.65059        0.38531
C          1.36229        2.11102       -0.05111
C          2.58518        2.78622       -0.33525
N          2.80160        1.69246       -0.51231
C          2.83806        0.57678       -0.66589
N          3.86206       -0.10352       -1.25656
C          1.51523        0.77449       -0.14990
C          0.47025       -0.15219        0.09414
C          0.82070       -1.50317        0.35265
C          2.15615       -1.76334        0.87497
N          3.18988       -1.98592        1.31123
C         -0.01752       -2.63156        0.35053
N          0.50029       -3.86991        0.65791
C         -1.34295       -2.69136       -0.04033
C         -2.21992       -1.67171       -0.36983
N         -3.43627       -2.15596       -0.79724
C         -2.02717       -0.28227       -0.22981
C         -3.13314        0.50780       -0.76022
N         -3.99972        1.11075       -1.19918
C         -0.84124        0.41021        0.15136
H          0.09655        3.71408        0.60622
H          2.77031        3.84988       -0.42357
H          3.83309       -1.11747       -1.26825
H          4.76834        0.34057       -1.34619
H         -0.12912       -4.65626        0.77639
H          1.42892       -3.92993        1.06331
H         -1.75813       -3.69821       -0.10442
H         -4.11269       -1.50729       -1.18711
H         -3.51498       -3.13540       -1.04836
