29
Coordinates from ORCA-job ./opt_b97-3c_parallel
N          3.50265       -2.10392        0.05798
C          2.87700       -0.88861        0.01590
C          3.71046        0.22202       -0.00504
C          3.35784        1.56096       -0.02943
C          2.09300        2.13171       -0.02442
C          0.83410        1.52480       -0.01296
C         -0.23759        2.44125       -0.00066
C         -1.56611        2.02556        0.00682
C         -1.81008        0.66312       -0.01310
C         -3.06301       -0.01483       -0.01442
N         -4.38839        0.30017        0.04622
N         -2.30075       -0.84982       -0.05095
C         -1.39936       -1.53158       -0.09029
N         -1.51748       -2.88601       -0.20140
C         -0.79990       -0.23474       -0.03376
C          0.55760        0.13630       -0.01931
C          1.48451       -0.91445       -0.00272
H          2.95023       -2.92423        0.28217
H          4.49417       -2.13009        0.26856
H          4.78107        0.02634       -0.00079
H          4.18843        2.26274       -0.04593
H          2.10751        3.21967       -0.03369
H         -0.04397        3.51175        0.00584
H         -2.38215        2.74351        0.02080
H         -4.66628        1.25524        0.24149
H         -5.06873       -0.43479        0.20272
H         -2.43247       -3.28932       -0.36671
H         -0.70678       -3.43136       -0.47167
H          1.06899       -1.91837        0.00854
