28
Coordinates from ORCA-job ./opt_b97-3c_parallel
N          3.55381        2.98388       -0.15318
C          2.99902        1.98480       -0.12613
C          2.28652        0.73058       -0.07872
C          0.88733        0.76717       -0.04894
C          0.01655       -0.33957        0.01117
C          0.45793       -1.67878        0.01603
C          1.84868       -2.04086       -0.05028
N          2.85706       -1.59223       -0.06539
C          3.03720       -0.50390       -0.04972
N          4.39892       -0.58124        0.07144
C         -0.47628       -2.71524        0.07882
N         -1.80790       -2.51136        0.13892
C         -2.22751       -1.23010        0.13491
C         -3.63146       -0.96578        0.18622
C         -3.28604        0.43105        0.06035
N         -4.53366        0.98624       -0.04930
C         -2.02761        1.14755        0.07686
C         -2.02903        2.53481        0.43186
N         -1.73404        3.58908        0.10156
C         -1.37656       -0.13699        0.07087
H          0.45468        1.76094       -0.07225
H          2.29230       -3.03008       -0.02584
H          4.86782       -1.47402       -0.03381
H          4.95749        0.26294        0.00660
H         -0.16176       -3.75750        0.08004
H         -4.38909       -1.49070       -0.38993
H         -4.62256        1.99467        0.02187
H         -5.34529        0.42030        0.17461
