30
Coordinates from ORCA-job ./opt_b97-3c_parallel
N          3.10405       -3.13384       -0.10924
C          2.53933       -2.14236       -0.06287
C          1.87169       -0.87677       -0.01471
C          2.82022        0.15708       -0.08117
N          3.91775        0.34372       -0.17104
N          2.77147        1.50973        0.00352
C          1.52617        2.11200        0.09944
N          1.53713        3.20758        0.25375
N          0.33329        1.62856        0.01274
C         -0.28386        0.49460        0.03002
C          0.41563       -0.77573        0.06769
N         -0.28024       -1.94950        0.12778
C         -1.63316       -2.05663        0.13491
N         -1.86864       -3.13564        0.20618
C         -2.34761       -0.81370        0.02044
C         -3.68282       -0.54998       -0.07248
C         -3.85841        0.76667       -0.17727
C         -2.64004        1.38400       -0.14403
N         -2.56372        2.48144       -0.23477
C         -1.65583        0.35929       -0.01707
H          4.74593        0.93280       -0.30781
H          4.29392       -0.60492       -0.27153
H          2.36186        3.80825        0.32353
H          0.75717        3.82666        0.48720
H         -2.87161       -3.31786        0.29190
H         -1.43446       -4.05531        0.31397
H         -4.48016       -1.29119       -0.08631
H         -4.82468        1.25990       -0.28665
H         -1.88317        3.23522       -0.29552
H         -3.46938        2.92647       -0.39964
