29
Coordinates from ORCA-job ./opt_b97-3c_parallel
N         -4.84265        2.64639        0.11742
C         -4.06966        1.80498        0.08790
C         -3.08492        0.75491        0.05787
C         -3.61684       -0.58121        0.06199
N         -3.24121       -1.61663       -0.00417
C         -2.16382       -1.85032       -0.02156
C         -0.84313       -1.26905        0.02835
C          0.26229       -2.13370        0.06256
N          0.10393       -3.49305        0.08038
C          1.55513       -1.62041        0.08061
C          1.74997       -0.24517        0.05580
C          3.06662        0.32575        0.05912
C          4.40536       -0.13459       -0.13812
N          5.36505       -0.69763        0.12296
C          2.38759        1.59760        0.03507
N          3.12993        2.74589        0.01831
C          1.00937        2.01425       -0.00563
C          0.66687        0.61913        0.02907
C         -0.65531        0.13205        0.02997
C         -1.71999        1.05874        0.04016
H         -4.65429       -0.89376        0.01549
H         -2.47682       -2.76146       -0.52092
H         -0.81780       -3.87139        0.27110
H          0.90813       -4.07321        0.29360
H          2.41047       -2.29236        0.10731
H          2.67159        3.62457       -0.19597
H          4.12882        2.67543       -0.14549
H          0.58937        2.73778       -0.69819
H         -1.48455        2.11935        0.05154
