27
Coordinates from ORCA-job ./opt_b97-3c_parallel
N         -4.32648        2.12843       -0.11059
C         -3.47120        1.37162       -0.09654
C         -2.42633        0.39267       -0.06844
C         -2.71243       -0.94053        0.11418
N         -3.88174       -1.59996        0.20490
C         -1.41755       -1.39679        0.26110
C         -1.13576       -2.75289       -0.09934
N         -0.88282       -3.82674       -0.40155
C         -0.34677       -0.43774        0.21572
C         -1.03794        0.71972       -0.02500
N         -0.51404        1.95179       -0.20127
C          0.83092        2.07950       -0.12599
N          1.28183        3.36363       -0.24981
C          1.70669        1.00275        0.10414
C          3.08724        1.30498        0.33062
N          4.16242        0.54735        0.11792
C          4.16287       -0.76693       -0.14024
N          3.16012       -1.72496       -0.08697
C          1.80409       -1.52269        0.13292
C          1.08618       -0.28479        0.26574
H         -4.73835       -1.16789       -0.13676
H         -3.92306       -2.59492       -0.00796
H          0.62579        4.08430       -0.53097
H          2.27136        3.52921       -0.39470
H          3.77418        2.15721        0.44101
H          5.09558       -1.32226       -0.32129
H          1.79534       -2.62161        0.07885
