29
Coordinates from ORCA-job ./opt_b97-3c_parallel
N          1.12389        4.34526       -0.40580
C          0.57316        3.34916       -0.30776
C         -0.13481        2.09644       -0.17357
C         -1.52904        2.17347       -0.11117
C         -2.24759        0.99714        0.03876
C         -3.65702        0.81327        0.13189
N         -3.22852       -0.23338        0.19628
C         -2.64215       -1.19889        0.26209
N         -3.14386       -2.45171        0.45410
C         -1.63319       -0.20158        0.10879
C         -0.24299       -0.33944        0.02715
C          0.27840       -1.64058        0.05161
C          1.66708       -1.97819       -0.11242
N          2.07788       -3.19944       -0.56532
N          2.62791       -1.44243       -0.02832
C          2.75672       -0.34741        0.04455
N          4.04430       -0.29195        0.49817
C          1.93817        0.82410       -0.12211
C          0.53121        0.84616       -0.09538
H         -2.04393        3.13026       -0.16943
H         -4.45010        1.51169       -0.10676
H         -2.51466       -3.20570        0.70569
H         -4.12827       -2.56599        0.66675
H         -0.36221       -2.51260        0.15159
H          3.06724       -3.41212       -0.62775
H          1.40874       -3.94569       -0.71185
H          4.51109        0.60223        0.59925
H          4.60475       -1.13592        0.53057
H          2.54754        1.71917       -0.21769
