27
Coordinates from ORCA-job ./opt_b97-3c_parallel
N          4.05327       -0.87429        0.02103
C          2.81822       -0.29679       -0.00381
N          2.20579        0.65427       -0.00487
C          1.43111        1.47807       -0.01936
N          1.68430        2.81417       -0.13045
C          0.62421        0.29843        0.01649
C          1.46955       -0.75578       -0.00290
C          1.00018       -2.05822       -0.02460
C         -0.37956       -2.24541       -0.03345
C         -1.28289       -1.16296       -0.00601
C         -2.62673       -1.55084       -0.02963
C         -3.78118       -0.77889       -0.00883
C         -3.90363        0.59849        0.06135
C         -2.89022        1.54230        0.11449
C         -1.51701        1.34626        0.09355
C         -0.77612        0.15867        0.03335
H          4.13593       -1.87270        0.17485
H          4.87160       -0.29766        0.18309
H          0.92799        3.43540       -0.39533
H          2.63113        3.12186       -0.31877
H          1.68396       -2.90293       -0.04405
H         -0.74966       -3.26825       -0.06135
H         -2.82198       -2.62010       -0.07607
H         -4.71749       -1.33213       -0.04421
H         -4.91878        0.98833        0.07787
H         -3.21635        2.57765        0.17393
H         -0.95657        2.27514        0.14298
