26
Coordinates from ORCA-job ./opt_b97-3c_parallel
N          4.30660        1.72612        0.12503
C          3.19280        1.46385        0.10851
C          1.78206        1.15253        0.09108
C          0.89342        2.22257        0.14309
C         -0.45915        1.94139        0.06078
C         -1.53324        2.87505       -0.03904
N         -2.01844        1.86205       -0.14644
C         -2.32233        0.78591       -0.28734
N         -3.58826        0.49571       -0.70571
C         -0.92506        0.66898       -0.00285
C         -0.07501       -0.46208        0.02651
C         -0.59231       -1.78972        0.10482
C         -1.97859       -2.02652        0.44159
N         -3.06072       -2.25067        0.73209
C          0.11823       -3.00320        0.01978
C          1.48209       -3.21079       -0.18082
C          2.49178       -2.20481       -0.28775
N          2.21416       -1.15931       -0.14831
C          1.31374       -0.17735       -0.00154
H          1.24677        3.25030        0.19288
H         -1.50274        3.95631        0.01928
H         -4.32354        1.18717       -0.62235
H         -3.85356       -0.47348       -0.84928
H         -0.46065       -3.92035        0.12155
H          1.87658       -4.22230       -0.23865
H          3.29239       -2.12731       -1.01442
