31
Coordinates from ORCA-job ./opt_b97-3c_parallel
N         -5.60163       -1.11793        0.12945
C         -4.68808       -0.50387       -0.18058
C         -3.28384       -0.22857       -0.17386
C         -2.46609        0.95127       -0.17474
N         -3.09727        2.16464       -0.25654
C         -1.08375        0.76749       -0.11081
C         -0.10348        1.76053       -0.03176
N         -0.37497        3.09711        0.03164
N          1.20978        1.46777        0.02205
C          1.70369        0.19644       -0.02560
C          3.11305        0.08582        0.03384
C          3.90684        1.29434        0.16947
N          4.54834        2.23465        0.27836
C          3.90766       -1.06176       -0.01286
C          3.54394       -2.39071       -0.15409
C          2.27259       -2.91860       -0.27421
C          1.06247       -2.24533       -0.25775
C          0.79411       -0.88133       -0.13195
C         -0.62200       -0.58731       -0.11421
C         -2.02155       -0.88025        0.07591
N         -2.17734       -2.10399        0.66902
H         -2.54934        2.96709       -0.54779
H         -4.08892        2.17447       -0.46907
H         -1.30941        3.38032        0.30256
H          0.38921        3.72250        0.26259
H          4.98367       -0.90768        0.06192
H          4.36131       -3.10833       -0.17586
H          2.21502       -3.99935       -0.38395
H          0.19792       -2.89695       -0.36020
H         -1.37708       -2.72219        0.73933
H         -3.10566       -2.51286        0.70618
