26
Coordinates from ORCA-job ./opt_b97-3c_parallel
N          3.11175       -2.69930       -0.18277
C          2.55918       -1.70371       -0.06325
C          1.99205       -0.74413       -0.04853
C          2.91052        0.28157        0.04521
N          3.92675        0.71849        0.19187
N          2.84415        1.62493        0.02078
C          1.64362        2.21267       -0.12195
N          0.45173        1.72231       -0.22463
C         -0.18686        0.58465       -0.18743
C          0.48479       -0.65609       -0.13052
N         -0.19727       -1.83962       -0.12778
C         -1.54325       -1.82975       -0.22010
C         -2.22975       -0.64287       -0.42370
C         -3.57374       -0.26730       -0.06614
N         -4.41736       -0.95389        0.12140
C         -3.68176        1.06419        0.20734
C         -2.48984        1.62201        0.06392
C         -1.62617        0.65220       -0.33842
H          4.15038       -0.25614        0.38299
H          4.75496        1.25786        0.43745
H          1.74728        3.30810       -0.13803
H         -2.05209       -2.78369       -0.09412
H         -5.40535       -0.82533        0.33053
H         -4.21975       -1.94769        0.22047
H         -4.59362        1.59033        0.48409
H         -2.25696        2.67683        0.19420
