32
Coordinates from ORCA-job ./opt_b97-3c_parallel
N          3.84948       -3.26696        0.29251
C          3.20808       -2.33338        0.13787
C          2.40438       -1.13700       -0.04141
C          3.14327       -0.07610       -0.53078
C          2.76588        1.23957       -0.67382
C          1.57313        1.86696       -0.33361
N          1.67761        3.21254       -0.58380
C          0.33698        1.28049        0.06141
C         -0.75593        2.13699        0.40922
N         -0.64475        3.44319        0.80273
N         -2.03886        1.75045        0.49895
C         -2.30194        0.46826        0.24980
C         -3.66235        0.02445        0.21519
C         -3.25100       -1.29746       -0.18568
N         -4.21308       -2.18476       -0.57824
C         -1.88848       -1.76234       -0.24494
C         -1.31898       -0.47677        0.07110
C          0.06102       -0.12394        0.08857
C          1.01906       -1.17084        0.21431
N          0.58579       -2.36174        0.75491
H          4.18235       -0.27608       -0.79077
H          3.56265        1.87712       -1.05550
H          0.82315        3.75673       -0.64172
H          2.48653        3.55124       -1.09242
H         -1.45057        3.87065        1.24462
H          0.27280        3.77057        1.08517
H         -4.49491        0.59055       -0.19036
H         -3.92952       -3.04852       -1.02743
H         -5.15358       -1.84424       -0.74576
H         -1.49025       -2.46419       -0.97082
H          1.27945       -3.03264        1.06835
H         -0.32234       -2.38124        1.20757
