27
Coordinates from ORCA-job ./opt_b97-3c_parallel
N         -5.30503        0.95578       -0.31981
C         -4.26707        0.49815       -0.18087
C         -2.94995       -0.06466       -0.02773
C         -2.88012       -1.50084       -0.00722
N         -2.09362       -2.25068        0.18533
C         -1.00757       -2.05993        0.13611
C         -0.05311       -0.98070        0.04932
C          1.32040       -1.30180       -0.03375
N          1.71082       -2.61568       -0.11234
C          2.29277       -0.28817       -0.05459
C          3.70607       -0.57715       -0.16492
N          4.82232       -0.80078       -0.27034
C          1.85318        1.02976        0.02036
C          2.59430        2.20282        0.03545
C          1.69526        3.25689        0.10967
C          0.40848        2.73500        0.13224
C          0.51226        1.34748        0.07606
C         -0.48587        0.36663        0.06619
C         -1.83366        0.77355        0.03398
H         -3.69687       -2.21310       -0.05531
H         -0.92160       -2.98079        0.70413
H          1.02964       -3.29756       -0.42603
H          2.68761       -2.80833       -0.31030
H          3.67814        2.28744        0.00007
H          1.95358        4.31291        0.14682
H         -0.50298        3.32348        0.19363
H         -2.04747        1.83791        0.00984
