31
Coordinates from ORCA-job ./opt_b97-3c_parallel
N         -4.94332       -1.93054        0.40493
C         -4.03567       -1.43846       -0.08536
C         -2.90623       -0.58837        0.14216
C         -2.53478        0.79934        0.01058
N         -3.68332        1.54670        0.02589
C         -1.25851        1.46998       -0.07713
C         -1.00281        2.35794        1.02036
N         -1.01034        3.49722        1.10829
C         -0.62579        0.17806       -0.15872
C         -1.50359       -0.88170        0.03985
C         -1.03214       -2.18413        0.15213
C          0.33129       -2.42059        0.08199
C          1.22512       -1.37234       -0.13570
C          2.61612       -1.73897       -0.22791
N          3.57276       -1.28690        0.08868
C          3.75377       -0.19879        0.09980
N          4.79985       -0.04738        0.96405
C          3.06672        0.91876       -0.49284
C          1.67597        1.00744       -0.62734
N          1.24703        2.18666       -1.17495
C          0.76998       -0.04116       -0.30238
H         -3.59881        2.54305        0.19944
H         -4.54277        1.09357        0.31876
H         -1.71702       -3.01404        0.31251
H          0.69987       -3.43895        0.18505
H          3.06552       -2.72347       -0.15711
H          5.28236       -0.86143        1.32739
H          5.20161        0.86904        1.12676
H          3.71246        1.74318       -0.78846
H          1.93681        2.81864       -1.56666
H          0.29970        2.24271       -1.53148
