26
Coordinates from ORCA-job ./opt_b97-3c_parallel
N          5.60167        0.98054       -0.14699
C          4.52613        0.59774       -0.09377
C          3.16928        0.12216       -0.04116
C          2.78226       -1.21056       -0.00691
C          1.39769       -1.22098        0.02716
C          0.54045       -2.30637        0.06370
C         -0.82818       -2.04539        0.08037
C         -1.33012       -0.73338        0.06698
N         -2.66308       -0.59143        0.06562
C         -3.46558        0.14983        0.04639
N         -4.63196       -0.48722       -0.25712
C         -3.34774        1.57371        0.12028
C         -2.13790        2.26429        0.11046
C         -0.84677        1.72276        0.06219
C         -0.44688        0.37114        0.04550
C          0.92566        0.07741        0.01741
C          2.03263        0.92197       -0.02483
H          3.43881       -2.07755       -0.01071
H          0.91851       -3.32586        0.07291
H         -1.52118       -2.88378        0.10045
H         -4.66823       -1.50015       -0.25799
H         -5.50455        0.02805       -0.27382
H         -4.28204        2.12788        0.16985
H         -2.20489        3.34888        0.14556
H         -0.06347        2.47312        0.05445
H          2.03107        2.00805       -0.04825
