23
Coordinates from ORCA-job ./opt_b97-3c_parallel
N         -0.26616        3.00549       -0.12228
C          0.17023        1.71200       -0.06890
N          1.51686        1.56570       -0.06245
C          2.00514        0.30758       -0.03066
N          3.29283       -0.09798       -0.01265
C          3.32777       -1.22378        0.01035
C          2.04490       -1.88531        0.00529
C          1.17315       -0.77577       -0.01984
C         -0.21885       -0.68340       -0.02720
C         -0.99161       -1.85681       -0.03075
C         -2.38635       -1.91323       -0.05174
C         -3.23955       -0.75562       -0.06158
N         -3.10626        0.33448        0.04417
C         -2.15089        0.88630       -0.00174
C         -0.73165        0.62954       -0.03825
H         -1.22013        3.17567       -0.41910
H          0.42071        3.72640       -0.31408
H          4.32356       -1.64968        0.03528
H          1.84567       -2.95123        0.02955
H         -0.47530       -2.81278       -0.02786
H         -2.89375       -2.87465       -0.06587
H         -4.32298       -0.72017       -0.08520
H         -2.67339        1.67954        0.52202
