28
Coordinates from ORCA-job ./opt_b97-3c_parallel
N          4.91858        0.71398       -0.15608
C          3.77982        0.80392       -0.14171
C          2.34601        0.93830       -0.12651
C          1.68926        2.15359       -0.23748
C          0.32360        1.91710       -0.20370
C         -0.65947        2.95837       -0.36900
N         -1.42389        3.79596       -0.50486
C          0.12906        0.53991       -0.06779
C          1.37845       -0.06247       -0.03245
C          1.50338       -1.45050        0.07820
C          2.77239       -2.13210        0.13201
N          3.76877       -2.68966        0.17769
C          0.33510       -2.21374        0.10991
C         -0.93686       -1.62434        0.05587
C         -2.03195       -2.50523        0.02341
C         -3.36273       -2.14490       -0.19957
C         -3.79357       -0.79913       -0.47135
N         -3.35765        0.18117       -0.19978
C         -2.33755        0.42400        0.14762
N         -2.67040        1.17319        1.24435
C         -1.04964       -0.21656        0.01800
H          2.16395        3.12558       -0.35165
H          0.42114       -3.29793        0.16147
H         -1.83473       -3.57028        0.12633
H         -4.13626       -2.90833       -0.23405
H         -4.69114       -0.46648       -0.97924
H         -3.56635        1.64758        1.25438
H         -1.92624        1.59020        1.79185
