26
Coordinates from ORCA-job ./opt_b97-3c_parallel
N         -0.12897        3.33181       -0.33861
C         -0.40661        2.00412       -0.17127
N         -1.73303        1.73306       -0.13119
C         -2.08397        0.44421        0.02934
C         -3.46053        0.00783        0.10877
C         -3.20651       -1.41619        0.26825
C         -1.85972       -1.74476        0.26492
C         -1.16572       -0.57190        0.11508
C          0.20426       -0.32601        0.05185
C          1.13954       -1.42680        0.04570
N          1.05897       -2.45771       -0.85221
N          2.19187       -1.58604        0.33720
C          2.96089       -0.81343        0.52175
C          3.05742        0.59187        0.23041
C          1.96148        1.42384       -0.01597
C          0.60931        1.02338       -0.05015
H          0.80370        3.59366       -0.63460
H         -0.89425        3.94231       -0.60541
H         -4.28439        0.55845        0.55158
H         -3.95643       -2.19359        0.39031
H         -1.44043       -2.74130        0.37774
H          0.20287       -2.60814       -1.37378
H          1.75771       -3.19254       -0.84763
H          3.76243       -1.53082        0.65385
H          4.06047        1.00807        0.27351
H          2.20179        2.47499       -0.14149
