29
Coordinates from ORCA-job ./opt_b97-3c_parallel
N         -5.17251       -1.43782       -0.00495
C         -4.13990       -0.94812       -0.01591
C         -2.82397       -0.33801       -0.01699
C         -1.77462       -1.25098       -0.00032
C         -0.38828       -1.06853        0.00280
C          0.30510       -2.29816        0.01168
N          1.64356       -2.43757        0.01372
C          2.30151       -1.27603        0.00706
C          3.69759       -1.09289       -0.00317
C          3.78130        0.34640       -0.02238
N          4.99143        0.97447       -0.05154
N          2.78388        0.86691       -0.01861
C          1.76064       -0.02557       -0.00362
C          0.34921        0.14686       -0.00347
C         -0.21770        1.44743       -0.01034
N          0.58759        2.55741       -0.00769
C         -1.56500        1.81616       -0.02368
C         -2.72924        1.05624       -0.03181
N         -3.88656        1.79647       -0.05799
H         -2.10129       -2.29088        0.00886
H         -0.22669       -3.24851        0.01512
H          4.50677       -1.81575       -0.00527
H          5.03018        1.97679       -0.19895
H          5.83541        0.43583       -0.21078
H          0.18081        3.48560        0.01222
H          1.59626        2.45647        0.02219
H         -1.74332        2.89240       -0.03213
H         -4.77615        1.32558        0.07250
H         -3.84072        2.79632        0.10397
