30
Coordinates from ORCA-job ./opt_b97-3c_parallel
N         -4.73616        2.02100       -0.01935
C         -3.71375        1.50851        0.01247
C         -2.40454        0.86183        0.03937
C         -1.30639        1.73427        0.10194
N         -1.52754        3.09141        0.17457
C          0.04252        1.41429        0.07330
C          0.69696        0.18435        0.05026
C          0.12795       -1.11521        0.09951
N          0.97748       -2.19763        0.15277
C          2.31956       -2.07591        0.13712
C          2.88990       -0.82380        0.04219
C          4.26302       -0.45160       -0.02897
N          3.69596        0.52743       -0.08227
C          2.97096        1.39238       -0.14951
N          3.36314        2.67904       -0.37293
C          2.10289        0.26600       -0.00312
C         -1.25922       -1.42244        0.07276
C         -1.58557       -2.85018        0.09756
N         -1.85765       -3.96119        0.11229
C         -2.37931       -0.55127        0.00394
N         -3.62186       -1.15824       -0.09330
H         -0.75530        3.69742        0.42893
H         -2.46829        3.41936        0.36879
H          0.68905        2.28800        0.08923
H          2.90720       -2.99091        0.17890
H          5.14139       -1.07543        0.08278
H          4.33743        2.86749       -0.57927
H          2.67810        3.35253       -0.69713
H         -4.42877       -0.58831       -0.32497
H         -3.66724       -2.15069       -0.29953
