30
Coordinates from ORCA-job ./opt_b97-3c_parallel
N         -4.72664       -2.99179       -0.30096
C         -3.78242       -2.34902       -0.26774
C         -2.58778       -1.54221       -0.20717
C         -2.74221       -0.24492        0.25172
C         -1.81993        0.80080        0.31699
C         -2.42556        1.94668        0.96730
N         -2.91907        2.83072        1.49814
C         -0.43499        0.79568       -0.01068
C          0.25912        2.03285       -0.21751
C         -0.38036        3.28029       -0.58292
N         -0.86626        4.26690       -0.89425
C          1.65076        2.11834       -0.29144
C          2.42880        0.99352       -0.11635
C          3.80897        1.04574       -0.05743
C          4.47772       -0.18229        0.24272
C          3.11311       -0.59091        0.47467
N          3.15574       -1.67042        1.31322
C          1.77816       -0.26184        0.02914
C          0.34142       -0.38985       -0.13257
C         -0.10236       -1.69634       -0.43389
C          0.87498       -2.71707       -0.75735
N          1.62980       -3.53240       -1.02600
C         -1.40409       -2.17360       -0.54236
H         -3.76026       -0.00163        0.56352
H          2.13375        3.07930       -0.46103
H          4.33496        1.99347       -0.14978
H          5.29272       -0.29262        0.95289
H          2.33585       -2.26543        1.36088
H          4.05461       -2.11119        1.47458
H         -1.50970       -3.21319       -0.85762
