32
Coordinates from ORCA-job ./opt_b97-3c_parallel
N         -5.51743        0.66306        0.93412
C         -4.40531        0.62599        0.67307
C         -2.99331        0.59660        0.33538
C         -2.41615        1.85556        0.32074
C         -1.11130        2.21860        0.05371
C          0.02593        1.42986       -0.11803
C          1.19026        2.21117       -0.21488
C          2.45085        1.66096       -0.36701
N          3.54578        2.46538       -0.50329
C          2.58902        0.24310       -0.37542
C          3.46208       -0.78078        0.14020
N          4.75895       -0.47267        0.43909
C          3.12634       -2.15093        0.41864
C          1.73982       -1.79906        0.37658
C          1.41322       -0.53662       -0.11310
C          0.09900        0.01484       -0.17229
C         -1.01987       -0.85420       -0.32855
C         -0.76373       -2.12212       -1.00231
N         -0.58099       -3.11402       -1.54234
C         -2.39006       -0.61418       -0.04701
N         -3.25232       -1.69255       -0.13507
H         -3.07704        2.69527        0.53409
H         -0.96515        3.29715        0.06784
H          1.12352        3.29737       -0.18602
H          4.41565        2.04005       -0.80520
H          3.40269        3.44767       -0.70888
H          5.31030       -1.14160        0.96498
H          5.01862        0.50631        0.49487
H          3.58532       -2.79266        1.16415
H          1.01233       -2.47591        0.81634
H         -4.25238       -1.52465       -0.10467
H         -2.92550       -2.54971       -0.56904
