31
Coordinates from ORCA-job ./opt_b97-3c_parallel
N         -3.10927        3.34277       -0.72840
C         -2.53794        2.37447       -0.51831
C         -1.80252        1.15752       -0.24572
C         -2.71079        0.08086        0.06853
N         -3.76523        0.19047        0.93878
N         -2.72228       -1.01268       -0.07672
C         -1.80463       -1.60189       -0.24778
N         -2.50047       -2.78504       -0.16359
C         -0.36311       -1.44422       -0.18921
C          0.26291       -2.69285       -0.57946
N          0.74167       -3.68344       -0.89199
C          0.30982       -0.19241       -0.14918
C         -0.39294        1.04617       -0.26538
C          0.33086        2.24728       -0.39930
C          1.71416        2.28052       -0.44349
C          2.44967        1.06364       -0.35514
C          3.69875        0.50175        0.08558
N          4.70884        1.41970        0.11170
C          3.96482       -0.85416        0.48201
C          2.56215       -1.13606        0.43407
C          1.72627       -0.13720       -0.05549
H         -4.40327       -0.59072        1.04418
H         -4.10814        1.11221        1.18596
H         -3.51306       -2.78339       -0.22740
H         -2.01750       -3.66100       -0.33164
H         -0.17074        3.20793       -0.47001
H          2.23541        3.22915       -0.54477
H          5.66269        1.09342        0.21976
H          4.55821        2.32141       -0.32702
H          4.63948       -1.17311        1.27005
H          2.21043       -2.05205        0.89715
