33
Coordinates from ORCA-job ./opt_b97-3c_parallel
N         -2.69859        4.04350        0.61516
C         -2.41572        2.95211        0.42570
C         -2.04748        1.56422        0.20549
C         -0.67536        1.38930        0.05755
C          0.11065        0.23269        0.01446
C         -0.36614       -1.10287        0.05446
C          0.60201       -2.11822        0.26265
C          1.96274       -1.86785        0.31207
C          2.41474       -0.57862        0.11368
C          3.80697       -0.23282        0.09645
C          4.99652       -1.01527        0.21522
N          6.00920       -1.48313        0.45385
C          3.51110        1.15998       -0.14552
N          4.56566        2.00213       -0.38790
C          2.18408        1.71993       -0.15910
C          1.51197        0.45080       -0.02102
C         -1.70685       -1.53510       -0.13576
N         -1.86764       -2.88239       -0.40164
C         -2.90515       -0.77767       -0.12628
C         -4.14598       -1.51254       -0.37325
N         -5.11426       -2.08423       -0.58410
C         -3.06301        0.59920        0.13503
N         -4.35379        1.07119        0.29282
H         -0.13431        2.32979        0.07024
H          0.32369       -3.15583        0.42554
H          2.66062       -2.68442        0.48248
H          4.40766        3.00808       -0.40769
H          5.50944        1.67163       -0.22492
H          1.85813        2.56089       -0.76302
H         -2.78093       -3.20774       -0.70157
H         -1.06230       -3.40294       -0.73059
H         -4.52212        2.06067        0.43918
H         -5.14316        0.43763        0.21723
