35
Coordinates from ORCA-job ./opt_b97-3c_parallel
N         -5.03652        3.04434        0.23597
C         -4.13598        2.34164        0.19747
C         -2.98176        1.46306        0.13937
C         -1.84260        2.02872        0.69501
C         -0.52576        1.58696        0.65735
C          0.39588        2.55409        1.21756
N          1.10841        3.32266        1.67345
C         -0.03886        0.33334        0.24429
C         -0.82831       -0.82277        0.05929
C         -0.21274       -2.03033        0.48571
C         -0.94600       -3.20809        0.90621
N         -1.51350       -4.13352        1.25864
C          1.13664       -2.06750        0.80945
C          2.03505       -1.02027        0.43740
C          3.43088       -1.00429        0.10029
N          4.17486       -2.14178        0.24948
C          3.64900        0.33973       -0.36142
C          5.01726        0.73918       -0.50137
N          5.89609        1.16813       -1.09299
C          2.40823        1.04084       -0.55586
N          2.44953        2.22986       -1.22944
C          1.41327        0.22187        0.08823
C         -2.14488       -0.83397       -0.47514
C         -2.51752       -2.01691       -1.24218
N         -2.81666       -2.93328       -1.85782
C         -3.09581        0.21368       -0.49208
N         -4.31294       -0.03828       -1.09787
H         -1.98789        3.01847        1.13295
H          1.58492       -2.95453        1.25363
H          3.70125       -3.02232        0.41726
H          5.10787       -2.16765       -0.14882
H          3.36250        2.64247       -1.39344
H          1.67249        2.87032       -1.10931
H         -5.08129        0.60695       -0.94481
H         -4.53937       -0.99012       -1.36859
