33
Coordinates from ORCA-job ./opt_b97-3c_parallel
N         -5.87240        0.62846       -0.74813
C         -4.87833        0.34014       -0.26233
C         -3.46168        0.19549       -0.11295
C         -2.97994       -1.14989        0.04637
N         -3.53890       -2.39800        0.06491
C         -1.57023       -0.97077        0.25357
C         -0.49178       -1.88100        0.47115
C          0.84056       -1.53107        0.30794
C          1.75206       -2.60212        0.65354
N          2.45777       -3.45277        0.94758
C          1.23066       -0.17963        0.10233
C          2.57904        0.13282       -0.23823
C          3.30899       -0.83766       -1.04495
N          3.88435       -1.58084       -1.69567
C          3.28261        1.33849       -0.01630
N          4.62100        1.41141       -0.32625
C          2.81090        2.51224        0.55504
C          1.50855        2.86026        0.84513
C          0.36050        2.11732        0.64793
C          0.20196        0.77504        0.29497
C         -1.20639        0.41092        0.15928
C         -2.39145        1.15419       -0.18525
N         -2.69128        2.43190       -0.57011
H         -2.93475       -3.21048        0.01563
H         -4.50644       -2.50098       -0.22397
H         -0.77921       -2.89795        0.73172
H          5.08675        2.31180       -0.30888
H          5.04873        0.65619       -0.85269
H          3.54014        3.30214        0.73124
H          1.36119        3.87291        1.21428
H         -0.54412        2.67590        0.86964
H         -3.62738        2.64255       -0.90064
H         -1.93868        3.07410       -0.79183
