23
Coordinates from ORCA-job ./opt_b97-3c_parallel
N          3.29725        2.04558       -0.14857
C          2.68632        1.13197       -0.11457
N          3.68088        0.17756       -0.17417
C          3.16890       -1.10628       -0.15298
N          1.89097       -1.61965       -0.07923
C          0.61278       -1.21892       -0.00231
N         -0.39966       -2.13010        0.05812
C         -1.68388       -1.70126        0.13374
C         -1.97819       -0.34253        0.14775
C         -3.23193        0.32780        0.21679
N         -4.30449        0.16197        0.03835
N         -2.46175        1.16057        0.16786
C         -1.57440        1.86893        0.11738
C         -0.99011        0.56975        0.08901
C          0.34476        0.17208        0.01386
N          1.31080        1.10554       -0.03851
H          4.24224        1.97613        0.22317
H          2.71238        2.41504        0.59700
H          3.71063       -2.06269       -0.19240
H         -2.45870       -2.46373        0.18013
H         -4.66831       -0.78856        0.02599
H         -5.06584        0.77884       -0.23645
H         -1.15616        2.61753       -0.57197
