31
Coordinates from ORCA-job ./opt_b97-3c_parallel
N          5.51471        0.24954       -0.80292
C          4.42369        0.02054       -0.54934
C          3.04326       -0.28508       -0.21827
C          2.79765       -1.64918       -0.18556
C          1.67220       -2.28935        0.28484
C          0.41221       -1.76567        0.52881
N         -0.37835       -2.62924        1.23925
C         -0.07406       -0.48099        0.21017
C          0.73144        0.69873        0.19163
C          0.05890        1.95088        0.25396
C         -1.32348        2.08257        0.25935
C         -1.93283        3.38935        0.27984
N         -2.41657        4.42481        0.28207
C         -2.07181        0.93447        0.11157
C         -3.44057        0.83016       -0.07753
C         -3.70864       -0.49930       -0.34017
C         -2.51245       -1.20331       -0.29195
C         -2.42680       -2.55309       -0.79601
N         -2.37646       -3.62086       -1.20148
C         -1.47637       -0.31092        0.04933
C          2.15179        0.75978        0.10414
N          2.75598        1.99091        0.25479
H          3.63538       -2.30827       -0.41089
H          1.80108       -3.35560        0.46521
H         -1.35652       -2.40173        1.37775
H         -0.09830       -3.60085        1.31616
H          0.59663        2.89403        0.27018
H         -4.15987        1.64561       -0.10237
H         -4.67762       -0.90628       -0.62049
H          3.76776        2.01892        0.32943
H          2.23945        2.72667        0.72230
