33
Coordinates from ORCA-job ./opt_b97-3c_parallel
N         -5.59076       -1.01558       -0.85669
C         -4.90340       -0.45252       -0.13699
C         -3.53230       -0.26096        0.22500
C         -2.96762        1.05246        0.32670
C         -1.58434        1.14915        0.34506
C         -0.89213        2.35246        0.29558
N         -1.51877        3.56454        0.34377
N          0.44168        2.39313        0.13090
C          1.20334        1.26798        0.05871
C          2.53862        1.56529       -0.21116
C          3.62403        0.72749       -0.42173
N          4.79365        1.33512       -0.78960
C          3.67019       -0.65128       -0.28735
C          2.67212       -1.53318        0.11237
N          3.12190       -2.82833        0.21990
C          1.31300       -1.25258        0.36794
C          0.51835       -2.38239        0.83219
N         -0.09091       -3.26967        1.21526
C          0.63779       -0.01617        0.24383
C         -0.81531       -0.05747        0.33915
C         -2.13438       -0.52490       -0.02032
N         -2.10267       -1.63152       -0.82640
H         -3.59600        1.94008        0.30162
H         -0.94510        4.38882        0.48458
H         -2.47903        3.59939        0.66553
H          2.76143        2.62682       -0.32662
H          5.54235        0.75901       -1.15832
H          4.76254        2.30738       -1.07706
H          4.64348       -1.10007       -0.48753
H          2.52151       -3.52565        0.64808
H          4.11824       -3.01221        0.17582
H         -1.23825       -2.15997       -0.87483
H         -2.96749       -2.14356       -0.96640
