33
Coordinates from ORCA-job ./opt_b97-3c_parallel
N          4.93625        1.68745       -0.48060
C          4.27247        0.76009       -0.40694
C          3.03062        0.05664       -0.31600
C          2.65190       -1.33861       -0.27373
N          3.58654       -2.33257       -0.30506
N          1.57386       -1.64683       -0.18729
C          0.88855       -0.48201       -0.12006
C          1.72678        0.58271       -0.19421
C          1.28475        1.88923       -0.14986
C         -0.08348        2.12273       -0.00714
N         -0.44006        3.44355       -0.06776
C         -1.01292        1.04261        0.10400
C         -2.40807        1.26874        0.30939
N         -2.89805        2.47559        0.73509
C         -3.40638        0.30121        0.14509
C         -3.18727       -1.02519       -0.36584
N         -4.09919       -1.67390       -1.14779
N         -2.35580       -1.73268       -0.20109
C         -1.34086       -1.45071        0.13251
N         -1.08589       -2.52241        0.94590
C         -0.49135       -0.28238        0.02624
H          3.30301       -3.28660       -0.11131
H          4.56893       -2.10031       -0.20947
H          1.99138        2.71219       -0.23785
H         -1.41231        3.65957       -0.26216
H          0.25532        4.11318       -0.37800
H         -2.23797        3.14213        1.12211
H         -3.85273        2.51344        1.07425
H         -4.44945        0.53060        0.35490
H         -5.01641       -1.26913       -1.29719
H         -3.96857       -2.65706       -1.35787
H         -1.67036       -3.34620        0.85830
H         -0.13488       -2.66551        1.26752
