28
Coordinates from ORCA-job ./opt_b97-3c_parallel
N         -4.14037        2.52425        0.08205
C         -3.35913        1.68963        0.06278
C         -2.36727        0.64654        0.05972
C         -2.85886       -0.67952        0.32436
N         -2.44239       -1.69361        0.17159
C         -1.39420       -1.96773       -0.04232
N         -1.67870       -2.90864       -0.99640
C         -0.08850       -1.35574        0.09090
C          1.05118       -2.16994        0.27531
N          0.94333       -3.52541        0.43386
C          2.33009       -1.60873        0.31047
C          2.47087       -0.23576        0.15789
N          3.61857        0.47040        0.16059
C          3.26913        1.53342        0.02756
C          1.86540        1.86288       -0.08695
C          1.74334        3.27710       -0.25430
N          1.05153        4.13802       -0.54964
C          1.36275        0.54397        0.00826
C          0.05582        0.04815       -0.00100
C         -1.01168        0.96119       -0.07258
H         -3.86775       -0.99058        0.57046
H         -2.60521       -3.31835       -1.03565
H         -0.91555       -3.42409       -1.42215
H          1.75052       -4.04235        0.76476
H          0.02350       -3.91574        0.61199
H          3.20958       -2.23437        0.44914
H          4.14169        2.17757        0.00769
H         -0.77741        2.01578       -0.18773
