30
Coordinates from ORCA-job ./opt_b97-3c_parallel
N         -4.80757        1.88134        0.64415
C         -3.80923        1.36692        0.43109
C         -2.54926        0.69884        0.16555
C         -1.45655        1.61888        0.04336
N         -1.53419        2.88443       -0.47148
N         -0.39584        1.38497        0.06534
C          0.48164        0.37846        0.02913
C          0.11138       -0.98659       -0.07218
C          1.17560       -1.93172       -0.12495
C          2.51871       -1.56188       -0.06869
C          2.81685       -0.21567        0.03504
C          4.08652        0.42492        0.11006
N          5.35821       -0.06565        0.12138
N          3.33459        1.27068        0.14409
C          2.45979        1.99102        0.17228
C          1.84037        0.70872        0.07780
C         -1.24047       -1.45412       -0.10645
C         -1.43975       -2.88738       -0.26934
N         -1.61089       -4.01162       -0.39477
C         -2.44374       -0.69955        0.04052
N         -3.64379       -1.38183        0.08193
H         -2.43895        3.34181       -0.51482
H         -0.71195        3.47676       -0.45804
H          1.00154       -3.00047       -0.19575
H          3.30797       -2.30858       -0.10061
H          6.13586        0.55520        0.31591
H          5.51164       -1.06445        0.20196
H          2.01137        2.97047        0.05964
H         -4.48881       -0.88396        0.34195
H         -3.63709       -2.39412        0.15355
