27
Coordinates from ORCA-job ./opt_b97-3c_parallel
N          3.77289        1.27601        0.08146
C          2.94904        0.53145        0.01073
C          3.23092       -0.80209       -0.05537
C          2.03419       -1.45419       -0.00922
N          1.90154       -2.55943        0.00742
N          0.66010       -1.33306        0.03101
C          0.02068       -0.08593        0.03352
C          0.62857        1.25318        0.03001
N         -0.18892        2.33793        0.03295
C         -1.54413        2.30813        0.03503
C         -2.14802        1.00818        0.04794
C         -3.45642        0.62730        0.06768
C         -3.51983       -0.70330        0.08766
C         -2.25012       -1.20918        0.07781
N         -2.17097       -2.31069        0.09759
C         -1.35609       -0.09548        0.04942
N          1.99983        1.53610        0.04595
H          4.47648        1.29385        0.82765
H          4.10817        1.98298       -0.58163
H          4.05255       -1.17703       -0.66750
H          2.71260       -3.18504        0.02597
H          1.11107       -3.21353       -0.01753
H         -2.22234        3.17690        0.03563
H         -4.31436        1.29796        0.06743
H         -4.44540       -1.28069        0.10703
H         -2.41460       -2.84601        0.93260
H         -2.83502       -2.60833       -0.61961
