33
Coordinates from ORCA-job ./opt_b97-3c_parallel
N         -2.82723        4.06093        0.54203
C         -2.43507        3.00577        0.34457
C         -1.92529        1.67834        0.08575
C         -2.87782        0.88500       -0.64711
N         -3.13661       -0.18091       -0.49301
C         -2.47152       -0.94685       -0.05692
N         -3.32178       -1.54814        0.83091
C         -1.03627       -1.14932       -0.07086
C         -0.54913       -2.45372       -0.27688
N         -1.38863       -3.51636       -0.47731
C          0.81686       -2.70139       -0.27124
C          1.70002       -1.64932       -0.09448
C          3.11582       -1.85798       -0.13021
C          3.29017       -0.43537        0.01692
N          4.65512       -0.33099       -0.00453
C          2.30709        0.62047        0.09537
C          2.53694        1.59291       -0.93272
N          2.87310        2.68542       -0.97977
C          1.24487       -0.35440        0.09709
C         -0.14370       -0.06513        0.14666
C         -0.62549        1.24839        0.41446
N          0.16603        2.16332        1.06395
H         -3.58725        1.20519       -1.40135
H         -3.01010       -2.37651        1.32572
H         -4.32133       -1.41553        0.72141
H         -1.00279       -4.40912       -0.76445
H         -2.37610       -3.33998       -0.63125
H          1.19474       -3.71036       -0.42418
H          3.63517       -2.63310        0.42685
H          5.19525       -1.12853       -0.32130
H          5.05703        0.59058       -0.14282
H         -0.25358        3.02817        1.38972
H          1.01506        1.84536        1.51794
