28
Coordinates from ORCA-job ./opt_b97-3c_parallel
N          5.41801       -2.10796        0.03060
C          4.46064       -1.48292        0.02011
C          3.26427       -0.67188        0.00719
C          2.07365       -1.46852       -0.00081
N          1.02584       -1.15070       -0.00504
C          0.26661       -0.04534       -0.01237
C          0.79524        1.26897       -0.01718
C          2.16784        1.57429       -0.01095
C          3.28992        0.73028        0.00127
N          4.50701        1.36262        0.00652
N         -0.02907        2.35742       -0.02937
C         -1.37278        2.20191       -0.03609
C         -1.92939        0.93312       -0.02903
C         -3.25043        0.52583       -0.03679
N         -4.27404        1.43210       -0.05820
C         -3.34932       -0.92582       -0.02821
C         -4.45880       -1.82527        0.00170
N         -5.57521       -2.04274        0.12289
C         -1.93847       -1.28330       -0.01574
C         -1.12618       -0.16269       -0.01776
H          1.97890       -2.54756       -0.03750
H          2.39718        2.63937       -0.01567
H          4.55658        2.37541        0.01555
H          5.36395        0.81926        0.02794
H         -1.97507        3.10799       -0.04809
H         -4.07459        2.40821        0.12903
H         -5.22160        1.09846        0.08537
H         -1.50825       -2.28166       -0.00676
