30
Coordinates from ORCA-job ./opt_b97-3c_parallel
N          5.52900       -0.05199       -0.33491
C          4.39417       -0.13397       -0.23015
C          2.95304       -0.22195       -0.10206
C          2.33143        0.97994        0.20568
C          0.97896        1.31809        0.29970
C          0.84949        2.64282        0.87698
N          0.77050        3.67929        1.35301
C         -0.16994        0.51558        0.05082
C         -1.45091        1.13503       -0.15753
C         -1.59885        2.49962       -0.63644
N         -1.72978        3.56287       -1.03635
C         -2.64555        0.39418       -0.10801
N         -3.88458        0.96073       -0.28134
C         -2.55524       -0.97019        0.09411
C         -3.60785       -1.93352        0.14768
N         -2.65831       -2.54144        0.18856
C         -1.62716       -2.99658        0.20625
C         -1.36006       -1.59155        0.12533
C         -0.13218       -0.90753        0.05352
C          0.98692       -1.74971       -0.02948
C          2.34031       -1.47280       -0.18259
N          3.12736       -2.58160       -0.37894
H          3.02799        1.80168        0.38587
H         -3.93683        1.91494       -0.62332
H         -4.67874        0.35282       -0.44624
H         -4.67093       -1.77155        0.27986
H         -1.17348       -3.74160        0.84943
H          0.77854       -2.81597       -0.05260
H          2.69084       -3.47554       -0.57532
H          4.10681       -2.45821       -0.61550
