29
Coordinates from ORCA-job ./opt_b97-3c_parallel
N          5.87115        0.49534       -0.74784
C          4.79778        0.22132       -0.46638
C          3.43708       -0.08245       -0.13402
C          3.37096       -1.42922        0.11456
C          2.04088       -1.15499        0.14901
C          0.98538       -2.07582        0.41638
C         -0.40421       -1.82432        0.20064
C         -1.20517       -2.94597        0.58846
N         -1.83621       -3.83116        0.94142
C         -0.79100       -0.44312       -0.05465
C         -2.20345       -0.11849       -0.31534
C         -3.17790       -1.10705       -0.66840
N         -3.98056       -1.85931       -0.97309
C         -2.75413        1.22957       -0.25258
N         -3.64185        1.88254       -0.33085
N         -2.16887        2.40182        0.22625
C         -0.80179        2.51938        0.33854
N         -0.73422        3.53056        0.77497
N         -0.02903        1.80397       -0.39989
C          0.25061        0.57243       -0.14563
C          1.65376        0.19284       -0.07399
C          2.68600        1.05877       -0.26597
H          3.87602       -1.87475        0.96992
H          1.41423       -3.04958        0.65229
H         -4.16151        2.66781       -0.72158
H         -4.15700        1.04436       -0.60045
H         -1.50901        4.17982        0.91362
H          0.07202        3.95526        1.23193
H          2.74389        1.66799       -1.16724
