32
Coordinates from ORCA-job ./opt_b97-3c_parallel
N         -5.61274       -1.98184        0.10934
C         -4.56110       -1.53674        0.05133
C         -3.23163       -0.96361       -0.00885
C         -3.20219        0.42034        0.13452
C         -2.13505        1.32050        0.11289
C         -2.57654        2.69587        0.25997
N         -2.94340        3.77269        0.37824
C         -0.75289        1.06174       -0.01115
N          0.06067        2.15956       -0.01716
C          1.40147        2.08133       -0.10882
N          2.06096        3.27656       -0.12702
C          2.06514        0.86190       -0.16742
C          3.44464        0.72436       -0.20033
C          3.97117       -0.60882       -0.19122
C          5.35021       -0.89602        0.05051
N          5.91527       -1.80237        0.45928
C          2.57534       -0.91389        0.00315
N          2.44483       -2.18117        0.50181
C          1.27027       -0.32434       -0.16287
C         -0.17196       -0.22021       -0.12955
C         -0.79599       -1.46205       -0.23843
C         -2.13950       -1.81633       -0.20452
N         -2.36739       -3.16099       -0.36439
H         -4.18387        0.87776        0.27110
H          3.03200        3.29120       -0.41650
H          1.51372        4.11943       -0.26508
H          4.10024        1.59193       -0.19034
H          1.54846       -2.46874        0.87873
H          3.27689       -2.66324        0.82683
H         -0.11533       -2.30151       -0.37364
H         -3.31961       -3.47808       -0.51616
H         -1.61266       -3.74795       -0.70273
