26
Coordinates from ORCA-job ./opt_b97-3c_parallel
N         -2.62510        3.61835       -0.55094
C         -1.95928        2.70650       -0.37629
C         -1.14554        1.54028       -0.15808
C          0.23589        1.68269       -0.01593
C          1.06333        0.57415        0.18654
C          2.47261        0.78575        0.36827
N          3.16321        1.62364        0.55770
N          3.47830        0.07573       -0.15794
C          3.40676       -1.19691       -0.59391
N          2.49978       -2.18905       -0.23532
C          1.30561       -1.88597        0.38973
C          0.51350       -0.70422        0.18449
C         -0.86142       -0.82193       -0.01345
N         -1.59542       -1.90096        0.05086
C         -2.77118       -1.33704        0.04431
N         -3.52214       -2.15395        0.05896
C         -3.11647       -0.01110        0.14046
C         -1.79620        0.25135       -0.05636
H          0.67622        2.67825       -0.06286
H          4.15051        1.87300        0.57834
H          2.67126        2.33453        1.09420
H          4.31822       -1.63513       -1.02897
H          1.11910       -2.96987        0.43244
H         -3.39452       -3.16466        0.11788
H         -4.52788       -2.00791       -0.03229
H         -3.87792        0.43351       -0.49791
