31
Coordinates from ORCA-job ./opt_b97-3c_parallel
N          4.42920       -2.48278        0.33944
C          3.66609       -1.64323        0.19353
C          2.69101       -0.56417        0.02650
C          3.27129        0.70655       -0.11968
N          4.63991        0.84498       -0.15512
C          2.61378        1.91205       -0.24266
C          1.26803        2.19309       -0.16837
C          0.14432        1.36356       -0.02825
C         -1.08508        2.08153        0.08689
N         -1.17096        3.44490        0.21179
C         -2.30828        1.43546        0.10781
C         -2.29763        0.07087        0.00941
C         -3.39992       -0.81290       -0.01967
C         -4.82767       -0.81036        0.00928
N         -5.74373       -0.13578        0.11800
C         -2.68473       -2.05940       -0.11745
N         -1.56715       -1.96019       -0.13212
C         -1.15764       -0.66917       -0.05228
C          0.14532       -0.07104       -0.03384
C          1.31094       -0.91234        0.00408
N          1.11126       -2.27663        0.06677
H          5.21829        0.05225        0.10431
H          5.04248        1.77287       -0.08319
H          3.24321        2.79104       -0.37537
H          1.11312        3.26262       -0.25955
H         -0.33285        3.95926        0.45795
H         -2.06094        3.84591        0.48691
H         -3.24660        1.98151        0.18614
H         -3.06782       -3.07119       -0.17637
H          0.20063       -2.65250       -0.16382
H          1.90969       -2.89057       -0.05213
