29
Coordinates from ORCA-job ./opt_b97-3c_parallel
N         -0.79838        4.04261        0.13822
C         -0.86324        2.90351        0.08403
C         -0.88110        1.46378        0.02582
C         -2.21835        0.87781        0.02067
N         -3.21830        1.35038        0.04224
C         -2.28958       -0.55481       -0.02337
C         -3.34479       -1.41909       -0.05529
C         -2.83602       -2.64239       -0.07545
C         -1.51065       -2.60689       -0.05165
C         -1.15082       -1.28841       -0.01955
C          0.11162       -0.73988       -0.00382
N          1.10007       -1.71454        0.03452
C          2.40512       -1.33708        0.02880
N          2.86866       -2.33803        0.10554
N          3.35660       -0.36348       -0.02443
C          2.88397        0.93165       -0.09767
N          3.80953        1.53940       -0.16031
C          1.50024        1.37351       -0.06226
C          0.28485        0.65651       -0.00991
H         -4.15346        0.95268       -0.03799
H         -3.34450        2.34139        0.24600
H         -4.40192       -1.16069       -0.07290
H         -3.42911       -3.55424       -0.10994
H         -0.85568       -3.47503       -0.06630
H          2.35597       -3.20783        0.26132
H          3.85343       -2.59954        0.16589
H          4.82046        1.47204       -0.29645
H          3.61261        2.54187       -0.20463
H          1.48914        2.45629       -0.10373
