29
Coordinates from ORCA-job ./opt_b97-3c_parallel
N         -5.27312       -2.76315       -0.08540
C         -4.32375       -2.12715       -0.10848
C         -3.12147       -1.32983       -0.12244
C         -1.93206       -2.02150       -0.27831
C         -0.64292       -1.51861       -0.29755
C         -0.18244       -0.20754       -0.18119
C         -0.92725        0.98961       -0.05495
C         -0.19028        2.20187       -0.02283
C          1.19849        2.26925       -0.08965
C          1.94531        1.10857       -0.17335
C          3.32890        1.11423       -0.19775
C          3.98483       -0.15979       -0.22399
C          5.39927       -0.30459       -0.08335
N          6.10984       -1.10543        0.31804
C          2.62201       -0.58497       -0.02065
N          2.63887       -1.81158        0.58668
C          1.26131       -0.14205       -0.20584
C         -2.34128        1.07335        0.04015
C         -2.98415        2.36323        0.19777
N         -3.50604        3.37227        0.32592
C         -3.28591        0.04228        0.02059
H         -2.00728       -3.10253       -0.38747
H          0.12027       -2.28436       -0.42125
H         -0.67977        3.16773        0.05393
H          1.69207        3.23808       -0.05964
H          3.87762        2.05311       -0.16218
H          1.77348       -2.33177        0.67271
H          3.51716       -2.31583        0.64983
H         -4.32579        0.35605        0.12755
