27
Coordinates from ORCA-job ./opt_b97-3c_parallel
N          0.98344       -3.93198       -0.01557
C          0.46255       -2.91441        0.00193
C         -0.19877       -1.62668        0.00813
C         -1.58977       -1.70680       -0.00307
C         -2.30984       -0.53526       -0.00340
C         -3.68412       -0.37372       -0.00789
C         -3.92659        0.99065       -0.00536
C         -2.70320        1.65075       -0.00084
C         -1.68752        0.69131        0.00016
C         -0.28459        0.82535        0.00560
C          0.19571        2.14356       -0.00371
C          1.49128        2.63644       -0.00157
C          2.68473        1.94228        0.02087
C          2.86768        0.56971        0.04450
N          4.16859        0.14715        0.07137
C          1.89833       -0.43103        0.04132
C          0.48781       -0.37208        0.01751
H         -2.10199       -2.66718       -0.01040
H         -4.43102       -1.16403       -0.01126
H         -4.90574        1.46313       -0.00567
H         -2.59392        2.73113        0.00417
H         -0.53454        2.94283       -0.01920
H          1.58185        3.72015       -0.01645
H          3.58241        2.55820        0.02314
H          4.36561       -0.83652       -0.07858
H          4.90622        0.81681       -0.11659
H          2.35487       -1.41447        0.06356
