30
Coordinates from ORCA-job ./opt_b97-3c_parallel
N         -5.55897       -0.19152       -0.60277
C         -4.47274        0.04075       -0.33671
C         -3.09581        0.28251       -0.00374
C         -3.13087        1.65591       -0.03147
C         -1.78303        1.50501       -0.00414
C         -0.80462        2.55718        0.02341
C          0.55499        2.28349        0.04528
C          1.02374        0.91239        0.03490
C          2.47213        0.72288       -0.03268
C          3.42115        1.79590       -0.10366
N          4.21666        2.61235       -0.16083
C          3.18016       -0.48346       -0.05731
N          4.19454       -0.94252       -0.11636
N          2.83401       -1.79061        0.02073
C          1.48404       -2.08000        0.11947
N          1.11112       -3.11551        0.21818
N          0.43810       -1.33377        0.10403
C          0.07211       -0.09848        0.06311
C         -1.29683        0.16864        0.03567
C         -2.25256       -0.80719        0.02859
N         -2.46251       -2.13018       -0.10392
H         -3.63970        2.23251        0.74095
H         -1.15137        3.58922        0.04295
H          1.21620        3.14654        0.09398
H          4.91839       -1.63423       -0.32659
H          4.70361       -0.05489       -0.08141
H          0.14711       -3.34198        0.47182
H          1.59607       -4.01338        0.18182
H         -2.14526       -2.59966       -0.95015
H         -3.40811       -2.48224        0.05905
