31
Coordinates from ORCA-job ./opt_b97-3c_parallel
N         -4.75301        1.26807       -0.12654
C         -3.55110        0.66304        0.10423
C         -3.60004       -0.75256        0.36964
C         -2.16906       -0.74808        0.29965
C         -1.42392       -1.90917        0.44744
C         -0.03603       -1.85106        0.36355
N          0.65913       -3.02142        0.51471
C          0.61392       -0.62190        0.13511
C          2.05407       -0.59929       -0.03019
N          2.72192       -1.38327       -0.93500
N          2.88718        0.10533        0.15169
C          2.83228        1.20783        0.21642
N          4.11859        1.57585        0.48943
C          1.79155        2.16552       -0.04030
C          0.43164        1.85227       -0.09376
C         -0.14370        0.57034        0.04112
C         -1.54703        0.47053        0.09815
C         -2.44916        1.58340       -0.02002
H         -4.76158        2.20842       -0.50699
H         -5.57302        0.68843       -0.26822
H         -4.24351       -1.47519       -0.12161
H         -1.92637       -2.85856        0.61950
H          0.17074       -3.83719        0.86645
H          1.66339       -2.96901        0.65123
H          3.73432       -1.34674       -0.97277
H          2.26363       -2.20997       -1.30140
H          4.85201        0.87647        0.46526
H          4.38767        2.55050        0.42181
H          2.10743        3.20105       -0.14078
H         -0.22123        2.71077       -0.21371
H         -2.37257        2.37527       -0.75890
