27
Coordinates from ORCA-job ./opt_b97-3c_parallel
N         -4.78307       -3.08282       -0.00113
C         -3.92914       -2.32314       -0.00015
C         -2.86867       -1.34816        0.00096
C         -1.54931       -1.90203        0.00054
N         -0.64017       -1.29591        0.00077
C         -0.09348       -0.07238        0.00140
C         -0.87629        1.11210        0.00199
N         -0.25793        2.33586        0.00188
C          1.08711        2.44407        0.00143
C          1.87323        1.30807        0.00098
C          3.24746        1.19085        0.00019
C          3.65650       -0.20262       -0.00072
C          5.04742       -0.52465       -0.00034
N          5.98873       -1.17295       -0.00037
C          2.34937       -0.84342       -0.00034
N          2.18502       -2.20064       -0.00046
C          1.30324        0.07406        0.00087
C         -2.29713        1.11042        0.00254
C         -2.99315        2.38188        0.00304
N         -3.55921        3.37513        0.00300
C         -3.17604        0.01253        0.00202
H         -1.25095       -2.94399       -0.00048
H          1.50490        3.44894        0.00097
H          3.87053        2.08154       -0.00030
H          1.25283       -2.59944       -0.00013
H          2.99609       -2.80999       -0.00072
H         -4.24098        0.24508        0.00215
