28
Coordinates from ORCA-job ./opt_b97-3c_parallel
N         -3.49301       -1.85906        0.27619
C         -2.94497       -0.66249       -0.07821
C         -3.70092        0.56269       -0.13028
C         -3.13589        1.88019        0.01914
N         -2.04558        2.05994        0.05939
C         -0.83090        1.46834        0.04877
N          0.29387        2.23502        0.12051
C          1.51315        1.64830        0.09501
N          2.60247        2.46580        0.18389
C          1.63174        0.26570       -0.01221
C          2.78575       -0.56820       -0.07054
N          4.14784       -0.63206       -0.11505
N          1.91812       -1.29892       -0.11329
C          0.93722       -1.86629       -0.16781
N          0.47298       -3.14484       -0.27232
C          0.52896       -0.50397       -0.07648
C         -0.74988        0.05529       -0.04286
N         -1.84418       -0.73962       -0.09228
H         -4.45976       -1.89459        0.57898
H         -2.88389       -2.62180        0.54916
H         -4.71522        0.72679       -0.48539
H         -3.30247        2.76125       -0.58860
H          3.50128        2.04588        0.39287
H          2.45408        3.43062        0.45760
H          4.59718       -1.51274       -0.33736
H          4.68062        0.21931       -0.25471
H          1.11331       -3.92713       -0.20078
H         -0.52315       -3.32495       -0.20782
