31
Coordinates from ORCA-job ./opt_b97-3c_parallel
N          2.38597        2.88166        0.60754
C          2.43342        1.78969        0.27918
C          2.43933        0.42106       -0.14524
C          3.50796       -0.38971        0.13751
N          4.79681       -0.03616        0.26302
C          3.06761       -1.63411        0.29389
C          1.60352       -1.59076        0.10375
C          0.72452       -2.66201        0.24258
C         -0.65245       -2.46698        0.10994
C         -1.19876       -1.20622       -0.17073
C         -2.64375       -1.17019       -0.29701
N         -3.54334       -1.80835       -0.29934
N         -3.46312       -0.14832        0.16933
C         -2.91382        1.12152        0.17643
N         -3.58426        1.82667        0.69619
N         -1.90061        1.56339       -0.50345
C         -0.67134        1.18666       -0.65927
N         -0.49208        2.24310       -0.92168
C         -0.22459       -0.14283       -0.34200
C          1.20093       -0.30564       -0.19858
H          5.43525       -0.62002        0.80063
H          5.04206        0.93648        0.44386
H          3.74604       -2.44988        0.53723
H          1.11006       -3.65271        0.47613
H         -1.30736       -3.32706        0.23753
H         -4.52119       -1.96587       -0.53951
H         -3.00596       -2.48238       -0.84425
H         -4.31899        1.51948        1.33248
H         -3.26792        2.73232        1.04208
H          0.26531        1.67117       -1.29488
H         -0.42180        3.13932       -1.40311
