29
Coordinates from ORCA-job ./opt_b97-3c_parallel
N         -2.38394        3.82168       -0.01867
C         -2.20518        2.69316       -0.02100
C         -2.00312        1.25752       -0.02740
C         -3.20802        0.53772       -0.11549
C         -3.39493       -0.84264       -0.13189
C         -2.35687       -1.81748       -0.01128
N         -2.60501       -3.13628        0.22724
N         -1.28907       -1.59470       -0.00841
C         -0.36435       -0.62487        0.00893
C         -0.67554        0.75752        0.02329
N          0.33856        1.67712        0.07443
C          1.63520        1.30008        0.08516
N          2.55361        2.30498        0.17703
C          1.97632       -0.04790        0.03958
C          3.20010       -0.70324        0.00089
N          4.39894       -0.05338       -0.09184
C          3.01697       -2.14210       -0.00576
C          1.56951       -2.23889       -0.01613
C          0.98609       -0.98347        0.01452
H         -4.12550        1.12015       -0.18245
H         -4.40180       -1.24522       -0.21310
H         -3.55410       -3.49094        0.18966
H         -1.84081       -3.80207        0.24411
H          2.21315        3.23023        0.41390
H          3.48748        2.06016        0.48622
H          5.21463       -0.59758       -0.35011
H          4.38379        0.91990       -0.37698
H          3.72182       -2.89304       -0.34770
H          0.95724       -3.13702       -0.04588
