31
Coordinates from ORCA-job ./opt_b97-3c_parallel
N         -5.48680        1.05624       -0.23993
C         -4.43668        0.98002        0.20526
C         -3.07136        0.56131        0.12753
C         -2.44368       -0.72807       -0.00624
N         -3.18769       -1.85419       -0.23013
C         -1.06160       -1.12679        0.05874
C         -0.03680       -2.12216        0.09665
N         -0.38093       -3.44136        0.17520
C          1.29882       -1.74882        0.05303
C          1.70881       -0.39958        0.00597
C          3.10649       -0.11453       -0.04298
C          4.06748       -1.19750       -0.06566
N          4.83721       -2.04240       -0.08495
C          3.74093        1.14258       -0.07746
C          3.16841        2.41406       -0.06977
C          1.77274        2.72089       -0.02711
N          1.06417        1.89172       -0.00061
C          0.70696        0.60138        0.02214
C         -0.66401        0.25079        0.06248
C         -1.75295        1.12954        0.10535
N         -1.69718        2.49783        0.14331
H         -4.16803       -1.74890       -0.46956
H         -2.71085       -2.69875       -0.52674
H         -1.33543       -3.67411        0.42712
H          0.34282       -4.11808        0.39135
H          2.01855       -2.56209        0.06661
H          4.82971        1.14347       -0.11344
H          3.80153        3.29774       -0.09678
H          1.29702        3.68811        0.08175
H         -0.80663        2.94939       -0.03472
H         -2.54726        3.02809       -0.01369
