26
Coordinates from ORCA-job ./opt_b97-3c_parallel
N          5.77299       -0.43217        0.00245
C          4.63928       -0.28514       -0.01153
C          3.21226       -0.11293       -0.03441
C          2.77090        1.25861       -0.08041
N          1.69423        1.50409       -0.03415
C          0.44157        1.00090        0.01938
N         -0.62578        1.84557        0.04609
C         -1.88594        1.35284        0.06053
N         -2.89174        2.27227        0.14025
C         -2.11035       -0.02370        0.03651
C         -3.27375       -0.78217       -0.00052
N         -4.52335       -0.24148       -0.11895
C         -2.97266       -2.20169        0.01525
C         -1.52221       -2.17738        0.02662
C         -1.04859       -0.87800        0.03843
C          0.26355       -0.40524        0.03786
N          1.30480       -1.26980        0.05144
C          2.41006       -1.30674        0.06219
H          3.05758        2.03426       -0.78088
H         -3.79886        1.94479        0.45333
H         -2.63574        3.22358        0.37959
H         -5.28443       -0.86072       -0.37548
H         -4.58972        0.72271       -0.42626
H         -3.60058       -3.00617       -0.35404
H         -0.83344       -3.01881        0.02101
H          2.52236       -2.13704        0.74905
