32
Coordinates from ORCA-job ./opt_b97-3c_parallel
N         -3.16436        3.37514        0.15034
C         -2.33698        2.58976        0.08550
C         -1.28579        1.60688        0.02172
C          0.04059        2.00757       -0.12830
C          1.10261        1.07671       -0.16560
C          2.42232        1.56861       -0.33164
N          2.63832        2.88423       -0.64983
C          3.58524        0.80341       -0.19505
C          3.61427       -0.55614        0.27389
N          4.62506       -1.03903        1.05532
N          2.89988       -1.39230        0.17855
C          1.82814       -1.31744       -0.08118
N          1.73009       -2.52145       -0.72550
C          0.79243       -0.30459       -0.04944
C         -0.55201       -0.69240        0.07387
N         -1.06185       -1.94272        0.15410
C         -2.17415       -1.79450        0.20472
N         -2.94147       -2.92406        0.20921
C         -2.75720       -0.46966        0.21660
C         -4.14976       -0.14509        0.26156
N         -5.26560        0.08430        0.35254
C         -1.54037        0.24609        0.10974
H          0.23221        3.07578       -0.19240
H          3.56640        3.15910       -0.95294
H          1.85570        3.43496       -0.98432
H          4.56615        1.24649       -0.35616
H          4.65035       -2.02358        1.29607
H          5.45377       -0.47950        1.22119
H          0.80497       -2.87419       -0.94575
H          2.46166       -3.20923       -0.58318
H         -2.50725       -3.81905        0.01348
H         -3.94428       -2.84614        0.07689
