30
Coordinates from ORCA-job ./opt_b97-3c_parallel
N         -4.23127       -3.32557        0.01368
C         -3.59741       -2.37445       -0.00114
C         -2.78017       -1.18812       -0.00342
C         -3.46523        0.05419        0.23295
N         -3.18445        1.11811        0.11820
C         -2.17982        1.55040       -0.03691
N         -2.58526        2.55700       -0.87370
C         -0.79878        1.12504        0.07143
C          0.21670        2.09328        0.25770
N         -0.06487        3.41772        0.45876
C          1.55868        1.71830        0.25359
C          1.85250        0.37849        0.07420
C          3.09657       -0.28801        0.03724
C          4.40164        0.28066        0.13664
N          5.46724        0.69244        0.19303
C          2.57029       -1.62558       -0.13130
N          3.40403       -2.70073       -0.23540
N          1.46240       -1.81102       -0.18158
C          0.90061       -0.58549       -0.06287
C         -0.46004       -0.24726       -0.04890
C         -1.39318       -1.29974       -0.12629
H         -4.50041        0.20894        0.51511
H         -1.89366        3.23331       -1.18108
H         -3.55264        2.85917       -0.85821
H         -1.00108        3.66904        0.75957
H          0.69456        4.04387        0.70275
H          2.35189        2.45130        0.38782
H          4.40387       -2.55593       -0.32406
H          3.02638       -3.60800       -0.48432
H         -1.01073       -2.31138       -0.24477
