31
Coordinates from ORCA-job ./opt_b97-3c_parallel
N          5.39594        0.87675        0.21703
C          4.27759        0.65076        0.15488
C          2.85317        0.37533        0.08893
C          2.07520        1.45894        0.45542
C          0.70311        1.65419        0.35731
C          0.35131        2.94476        0.92215
N          0.09586        3.95849        1.38457
C         -0.30699        0.72935       -0.01433
C         -1.61385        1.23026       -0.32751
C         -1.82323        2.53296       -0.93868
N         -1.99767        3.54710       -1.43689
C         -2.75120        0.41938       -0.22250
N         -4.02142        0.87416       -0.47635
C         -2.56385       -0.88738        0.18006
C         -3.56537       -1.87603        0.42883
N         -2.58373       -2.40548        0.57133
C         -1.53136       -2.78864        0.65699
C         -1.32409       -1.42565        0.25532
C         -0.13043       -0.68704        0.02260
C          1.08474       -1.39244       -0.23159
C          0.96900       -2.78588       -0.64661
N          0.90372       -3.87680       -0.98479
C          2.41068       -0.89627       -0.29599
N          3.41261       -1.76649       -0.69049
H          2.64658        2.32301        0.80481
H         -4.12926        1.77322       -0.93484
H         -4.76534        0.19455       -0.58840
H         -4.64070       -1.75736        0.48702
H         -0.94822       -3.40008        1.33607
H          3.19174       -2.72922       -0.92430
H          4.38180       -1.46561       -0.68935
