27
Coordinates from ORCA-job ./opt_b97-3c_parallel
N          5.26709       -0.66801        0.31845
C          4.50519        0.02982       -0.17071
C          3.07804        0.06501       -0.23391
C          2.33563        1.28701       -0.13485
C          0.95581        1.18955       -0.08649
C          0.14236        2.30636        0.03587
C         -1.23972        2.15346        0.09520
C         -1.87305        0.90035        0.02476
C         -3.26861        0.95859        0.10171
C         -4.20748       -0.06521        0.06307
C         -4.00293       -1.42890       -0.07659
C         -2.79885       -2.10190       -0.21126
C         -1.51224       -1.58029       -0.22661
C         -1.08195       -0.25733       -0.11427
C          0.35543       -0.10805       -0.15160
C          1.74918       -0.47133       -0.07728
N          1.87842       -1.77798        0.30582
H          2.82196        2.25895       -0.08246
H          0.57794        3.30137        0.09172
H         -1.83727        3.05690        0.19745
H         -3.70787        1.94786        0.21252
H         -5.24575        0.24648        0.15092
H         -4.89767       -2.04713       -0.08446
H         -2.87131       -3.18212       -0.31474
H         -0.73177       -2.32847       -0.34468
H          2.79483       -2.11153        0.58593
H          1.06351       -2.25703        0.67216
