30
Coordinates from ORCA-job ./opt_b97-3c_parallel
N         -4.87487       -0.97001       -0.06251
C         -3.79338       -0.59902       -0.03140
C         -2.40971       -0.12658       -0.00739
C         -2.26399        1.26038        0.11866
N         -3.38042        2.05324        0.26591
C         -1.09194        1.98979        0.03949
C          0.23454        1.59166       -0.07700
N          1.03228        2.70096       -0.20386
C          0.78640        0.28337       -0.02547
C          0.03309       -0.93935        0.00321
C          0.76016       -2.16152        0.13289
C          2.14001       -2.23679        0.17745
C          2.82050       -1.05499        0.08622
C          4.20772       -0.80730        0.10695
C          4.24375        0.62963        0.01556
N          3.21012        1.07093       -0.03196
C          2.20966        0.15273       -0.00297
C         -1.38250       -1.09682       -0.10002
N         -1.84651       -2.38015       -0.32643
H         -3.25883        3.02403        0.53216
H         -4.26795        1.60914        0.47839
H         -1.24523        3.07020        0.06811
H          2.00485        2.57373       -0.46138
H          0.60056        3.59420       -0.41042
H          0.27673       -3.12775        0.23475
H          2.65729       -3.18756        0.28072
H          5.04680       -1.49244        0.16734
H          5.09655        1.29714       -0.00951
H         -2.82245       -2.50203       -0.57587
H         -1.19152       -3.07502       -0.66533
