33
Coordinates from ORCA-job ./opt_b97-3c_parallel
N         -4.59135       -2.40947        0.55522
C         -3.78877       -1.59671        0.49684
C         -2.62201       -0.80612        0.24649
C         -2.75304        0.55800       -0.18966
N         -3.91363        1.22955       -0.46301
C         -1.40189        1.03577       -0.31880
C         -0.86999        2.37345       -0.27175
N         -1.70664        3.44145       -0.43220
C          0.44964        2.60625        0.07624
C          1.36453        1.56617        0.18373
N          2.62294        1.90823        0.47038
C          3.64726        1.58462        0.65028
C          4.05537        0.23152        0.44591
C          3.28948       -0.81610       -0.07151
N          4.01807       -1.96158       -0.28438
C          1.89414       -0.80508       -0.34519
C          1.38381       -1.99135       -1.01150
N          1.00126       -2.92355       -1.55220
C          0.96758        0.24866       -0.09680
C         -0.46866       -0.05063       -0.13371
C         -1.23473       -1.17763        0.33242
N         -0.95055       -2.33483        1.00704
H         -3.86268        2.08812       -0.99910
H         -4.78249        0.70587       -0.48041
H         -2.70624        3.27747       -0.38539
H         -1.36771        4.36369       -0.18136
H          0.79034        3.63098        0.21143
H          4.25681        2.44499        0.89904
H          5.11717        0.11080        0.65114
H          3.55054       -2.80952       -0.58848
H          4.99113       -2.00532       -0.00251
H         -0.01108       -2.70793        0.92298
H         -1.70178       -3.00743        1.12055
