33
Coordinates from ORCA-job ./opt_b97-3c_parallel
N          4.25666        2.83848       -0.15022
C          3.53619        1.95041       -0.11903
C          2.62204        0.81442       -0.06472
C          3.16622       -0.42326       -0.42781
N          4.45591       -0.49183       -0.90107
C          2.60365       -1.65904       -0.15869
C          1.30904       -2.00236        0.21301
N          1.24720       -3.31744        0.60154
C          0.14527       -1.19211        0.14826
C         -1.13923       -1.82685        0.07262
N         -1.35816       -3.16053       -0.13787
N         -2.32178       -1.18703        0.06270
C         -2.29171        0.14362        0.09323
C         -3.51618        0.90907       -0.01543
C         -4.92872        0.73627       -0.13353
N         -6.00495        0.36037       -0.21563
C         -2.88367        2.20560       -0.14601
C         -1.50366        2.16838       -0.06886
C         -1.11656        0.85528        0.11551
C          0.15891        0.23574        0.19083
C          1.29927        1.06471        0.35756
N          1.10720        2.27427        0.98878
H          4.88495       -1.39101       -1.09060
H          4.98970        0.35834       -1.05067
H          3.29432       -2.49802       -0.25496
H          2.11281       -3.79477        0.82712
H          0.40349       -3.63293        1.06963
H         -0.58236       -3.71915       -0.47664
H         -2.29445       -3.45101       -0.39693
H         -3.39269        3.15084       -0.31912
H         -0.86928        3.03892       -0.20541
H          1.92211        2.80981        1.27013
H          0.24477        2.42058        1.50175
