29
Coordinates from ORCA-job ./opt_b97-3c_parallel
N         -3.95518       -2.06712       -0.06548
C         -3.12776       -1.32759       -0.05220
C         -3.34777        0.03266       -0.10406
C         -2.23843        0.98347       -0.06680
N         -2.72104        1.97964       -0.11810
C         -0.86718        0.70305        0.01075
C          0.03235        1.84978        0.06275
N          0.31067        2.91741        0.08357
N          1.37024        1.68565        0.11648
C          1.94183        0.47270        0.12261
N          3.32436        0.42646        0.15506
C          3.82662       -0.85966        0.14150
N          4.90483       -1.11075        0.15217
C          2.54158       -1.31192        0.10092
C          1.17184       -0.73807        0.08079
C         -0.26723       -0.62070        0.04476
C         -1.00704       -1.77768        0.03965
N         -2.21189       -2.23743        0.01940
H         -4.15173       -3.05420        0.11371
H         -4.87301       -1.65523       -0.24453
H         -4.37838        0.39411       -0.16740
H         -2.33256        2.80698       -0.57303
H         -3.69091        2.22599        0.08736
H          0.73737        3.79923       -0.20306
H         -0.52704        3.16980        0.60827
H          5.34552       -2.03294        0.18332
H          5.68659       -0.45263        0.11334
H          2.33160       -2.38039        0.06493
H         -0.86927       -2.87069        0.05794
