27
Coordinates from ORCA-job ./opt_b97-3c_parallel
N         -5.67236       -1.81928       -0.02646
C         -4.68958       -1.23574       -0.02078
C         -3.46110       -0.48358       -0.01383
C         -3.49291        0.91119       -0.01047
C         -2.39976        1.78623       -0.00460
C         -1.02142        1.50018       -0.00132
C         -0.18005        2.62028        0.00483
C          1.20270        2.49840        0.00855
C          1.80924        1.20100        0.00466
C          2.89626        0.25818        0.01702
N          4.00298        1.06003        0.05159
C          3.01304       -1.17725        0.01295
C          3.99715       -2.21249        0.00737
N          5.11751       -2.41998       -0.09150
C          1.57970       -1.17363        0.00494
C          0.93895        0.05934        0.00192
C         -0.46006        0.20613       -0.00248
N         -1.23862       -0.88812       -0.00683
C         -2.26472       -1.27141       -0.01058
H         -4.47611        1.37766       -0.01270
H         -2.67541        2.83861       -0.00249
H         -0.60466        3.62175        0.00776
H          1.82895        3.38667        0.01496
H          3.89630        2.05180       -0.13002
H          4.91412        0.63930       -0.09788
H          1.02858       -2.11090        0.00382
H         -2.16463       -2.35019        0.00819
