32
Coordinates from ORCA-job ./opt_b97-3c_parallel
N         -5.81594        0.70381       -0.76686
C         -4.89968        0.39195       -0.15730
C         -3.48674        0.22809        0.00199
C         -3.05317       -1.13914        0.10271
N         -3.59347       -2.39464        0.05266
C         -1.63575       -1.00072        0.28901
C         -0.58365       -1.96086        0.44048
C          0.76190       -1.65672        0.28664
C          1.64186       -2.78675        0.48183
N          2.31780       -3.69178        0.65715
C          1.18427       -0.31415        0.14136
C          2.54083        0.03567       -0.11079
C          3.54845       -0.85724       -0.65077
N          4.34590       -1.54458       -1.09736
C          3.02354        1.40587       -0.15098
N          4.29392        1.82651       -0.46190
N          2.71097        2.41073        0.17961
C          1.76198        2.61131        0.70434
C          0.45949        2.04031        0.51067
C          0.18269        0.68356        0.28924
C         -1.23674        0.37451        0.20497
C         -2.40165        1.16884       -0.08523
N         -2.66423        2.45334       -0.47364
H         -4.55211       -2.49744       -0.26369
H         -2.97345       -3.19184       -0.03720
H         -0.90673       -2.98151        0.63802
H          5.01415        1.14497       -0.67615
H          4.57533        2.78495       -0.28695
H          2.01974        3.58781        1.09866
H         -0.32055        2.78194        0.65608
H         -1.89293        3.04662       -0.75867
H         -3.59307        2.67733       -0.81597
