36
Coordinates from ORCA-job ./opt_b97-3c_parallel
N         -3.95061       -3.12854       -0.15379
C         -3.39872       -2.12847       -0.10354
C         -2.69416       -0.85416       -0.05385
C         -3.40046        0.22613        0.48686
N         -4.63188        0.02111        1.06256
C         -3.08495        1.55888        0.27623
C         -1.90025        2.14354       -0.16043
N         -2.08613        3.46632       -0.47413
C         -0.61224        1.54760       -0.16072
C          0.54928        2.37469       -0.07442
N          0.55702        3.72871        0.11845
N          1.81085        1.91794       -0.05026
C          2.00131        0.59621       -0.08171
C          3.34198        0.09392        0.03171
C          4.58972        0.79208       -0.05021
N          5.69570        0.87040        0.22929
C          2.75412       -1.22391        0.06078
N          3.78783       -2.12000        0.14938
C          1.38160       -1.67304        0.02300
C          0.96826       -2.72389        0.90711
N          0.72645       -3.82899        0.74300
C          0.96001       -0.30454       -0.16507
C         -0.38582        0.14513       -0.26750
C         -1.38013       -0.81969       -0.55858
N         -1.02133       -1.86757       -1.38049
H         -5.21472        0.81169        1.31477
H         -5.01650       -0.91675        1.11515
H         -3.90037        2.25466        0.47802
H         -1.34149        3.94273       -0.97313
H         -3.03332        3.79405       -0.62915
H          1.43668        4.17134        0.35931
H         -0.29704        4.16763        0.44558
H          4.71113       -1.77027        0.38598
H          3.57278       -3.08302        0.38655
H         -1.63623       -2.67191       -1.45576
H         -0.05738       -1.96797       -1.67698
