30
Coordinates from ORCA-job ./opt_b97-3c_parallel
N         -4.43866       -2.00282        0.66072
C         -3.95548       -1.23326       -0.03318
C         -2.88197       -0.30132        0.11396
C         -2.69540        1.12410       -0.00961
N         -3.81114        1.89886       -0.16692
C         -1.54999        1.99552       -0.06378
C         -0.73807        0.81412        0.03590
C         -1.44867       -0.37153        0.13201
C         -0.78293       -1.58371        0.25925
C          0.60729       -1.61363        0.24943
N          1.22053       -2.83123        0.37328
C          1.34312       -0.42147        0.11679
C          2.78599       -0.48973        0.00448
N          3.42620       -1.22811       -0.95636
N          3.66136        0.13543        0.25465
C          3.66115        1.22311        0.45244
C          2.71350        2.26801        0.17527
C          1.33979        2.06468        0.02449
C          0.67045        0.82232        0.05589
H         -4.72207        1.47762       -0.01727
H         -3.72825        2.90593       -0.08369
H         -1.39879        2.79391       -0.78399
H         -1.34875       -2.50848        0.35389
H          0.66689       -3.62749        0.66912
H          2.21803       -2.84845        0.55922
H          4.43918       -1.26249       -0.96820
H          2.92199       -1.97880       -1.41520
H          4.73392        1.30274        0.58419
H          3.12276        3.27509        0.15622
H          0.75727        2.97404       -0.08457
