31
Coordinates from ORCA-job ./opt_b97-3c_parallel
N         -5.20488        0.70106       -0.78175
C         -4.15047        0.37941       -0.47887
C         -2.80458       -0.02425       -0.11847
C         -1.90834        1.03474        0.01878
C         -0.50894        1.06339        0.17386
C          0.08179        2.36061        0.18650
N         -0.64508        3.51986        0.28135
C          1.45933        2.53926        0.09891
C          2.27130        1.43112       -0.01019
N          3.60220        1.43848       -0.22153
C          3.85334        0.34793       -0.30806
C          2.83945       -0.66778       -0.13279
C          3.55149       -1.86781       -0.45773
N          3.55882       -2.91106       -0.92172
C          1.72565        0.18693        0.09857
C          0.34397       -0.07125        0.26100
C         -0.07080       -1.39425        0.53848
N          0.83929       -2.30080        1.01455
C         -1.34549       -1.94964        0.46374
C         -2.55275       -1.38356        0.08506
N         -3.58507       -2.28189       -0.03359
H         -2.39863        1.99539       -0.11051
H         -0.14557        4.38114        0.47536
H         -1.60394        3.45875        0.60468
H          1.89316        3.53682        0.06503
H          4.90268        0.26532       -0.57185
H          0.49305       -3.16740        1.41136
H          1.72814       -1.95521        1.35903
H         -1.39939       -3.01488        0.69231
H         -4.44171       -1.97544       -0.48321
H         -3.36521       -3.27135       -0.06168
