27
Coordinates from ORCA-job ./opt_b97-3c_parallel
N          5.65251       -0.63158        0.37143
C          4.59412       -0.24194        0.18568
C          3.28128        0.31816        0.14797
C          3.03575        1.72807       -0.11788
C          1.69776        2.05377       -0.27295
C          0.98617        0.89221       -0.12015
C          1.89734       -0.11068        0.12631
N          1.53884       -1.39137        0.34468
C          0.21216       -1.65773        0.29729
C         -0.77529       -0.69184        0.04118
C         -2.15340       -1.11596       -0.03735
N         -2.54327       -2.29295       -0.61650
N         -3.13938       -0.63246        0.09366
C         -3.39294        0.44337        0.05837
N         -4.64393        0.49590        0.60274
C         -2.67663        1.62733       -0.33729
C         -1.28404        1.71134       -0.39296
C         -0.39100        0.65056       -0.16135
H          3.79569        2.50202       -0.19394
H          1.30348        3.04651       -0.47120
H         -0.05517       -2.69953        0.46412
H         -1.85326       -2.98757       -0.87867
H         -3.52320       -2.55230       -0.63066
H         -5.06748       -0.34410        0.98076
H         -5.06769        1.39067        0.82052
H         -3.27793        2.51203       -0.53309
H         -0.87829        2.69382       -0.61443
