29
Coordinates from ORCA-job ./opt_b97-3c_parallel
N          5.15065       -0.11940        0.00072
C          4.03875       -0.38299        0.00094
C          2.64293       -0.74250        0.00075
C          2.20252       -2.04807        0.00058
C          0.81828       -2.04462        0.00007
C          0.10411       -3.29658        0.00031
N         -0.44651       -4.29830        0.00160
C          0.36508       -0.70677        0.00010
C          1.51687        0.08141        0.00032
C          1.44214        1.47109        0.00005
C          2.59313        2.34115       -0.00028
N          3.49199        3.04714       -0.00082
C          0.18033        2.04805       -0.00013
C         -1.00373        1.29203        0.00003
C         -2.14907        2.10146        0.00016
C         -3.49729        1.77536        0.00034
C         -4.08311        0.52136        0.00026
N         -5.44900        0.47409        0.00021
C         -3.42273       -0.69518        0.00020
C         -2.06120       -0.96773        0.00020
C         -0.93618       -0.12544        0.00009
H          2.83677       -2.93213        0.00081
H          0.12922        3.13631       -0.00012
H         -1.98346        3.17696       -0.00016
H         -4.17745        2.62526        0.00004
H         -5.99165        1.33059       -0.00032
H         -5.92640       -0.42075       -0.00022
H         -4.05876       -1.57920        0.00013
H         -1.90955       -2.02770        0.00029
