30
Coordinates from ORCA-job ./opt_b97-3c_parallel
N         -5.47537       -1.20021       -0.01140
C         -4.35543       -0.97023        0.00444
C         -2.93938       -0.66098        0.01561
C         -2.10529       -1.76656       -0.01057
C         -0.72046       -1.84151       -0.00838
C          0.27647       -0.84963       -0.00030
C          0.04342        0.55594        0.00764
C         -1.22940        1.17234        0.04383
C         -2.53170        0.67382        0.05259
N         -3.50120        1.64769        0.09822
C          1.16131        1.44562       -0.02032
C          1.03427        2.89131       -0.03810
N          0.94592        4.03133       -0.04715
C          2.47219        0.96745       -0.04269
N          3.58933        1.76140       -0.08830
C          2.75028       -0.42306       -0.01621
C          3.85998       -1.34741       -0.01381
C          3.42744       -2.65433        0.00221
C          2.05578       -2.64615        0.00828
C          1.61632       -1.31974       -0.00459
H         -2.60355       -2.73572       -0.03176
H         -0.40866       -2.87519       -0.02566
H         -1.25115        2.25542        0.07363
H         -3.23520        2.61684       -0.03970
H         -4.47170        1.38801       -0.04325
H          4.49634        1.34460        0.08740
H          3.48225        2.76138        0.04895
H          4.92339       -1.12091       -0.02235
H          4.06353       -3.53636        0.00970
H          1.46412       -3.55526        0.02531
