33
Coordinates from ORCA-job ./opt_b97-3c_parallel
N          4.77549        2.90663        0.53613
C          3.93789        2.14658        0.37011
C          2.86136        1.19459        0.15850
C          1.64142        1.80671       -0.09332
C          0.35353        1.28061       -0.18802
C         -0.61654        2.29478       -0.27357
C         -1.97058        2.02248       -0.28297
C         -2.38186        0.71145       -0.16041
C         -3.77548        0.37694       -0.06550
C         -5.02048        1.05364       -0.25500
N         -5.93487        1.66647        0.05276
C         -3.41257       -0.99614        0.17451
N         -4.36747       -1.92873        0.46900
C         -2.09303       -1.56764        0.19853
C         -1.45106       -0.31344       -0.10080
C         -0.04205       -0.07976       -0.19006
C          0.85410       -1.17738       -0.33320
N          0.30773       -2.34884       -0.81579
C          2.25715       -1.22960       -0.11263
C          2.88153       -2.54956       -0.20830
N          3.37494       -3.57741       -0.29734
C          3.14224       -0.17727        0.21017
N          4.44638       -0.50980        0.53090
H          1.70103        2.89461       -0.13315
H         -0.32734        3.34317       -0.31384
H         -2.69335        2.83376       -0.33416
H         -5.30825       -1.60899        0.67549
H         -4.07855       -2.82936        0.83421
H         -1.74966       -2.29718        0.92650
H         -0.61852       -2.31738       -1.22731
H          0.93109       -3.09189       -1.11435
H          5.14449        0.22355        0.59845
H          4.76075       -1.46704        0.41003
