23
Coordinates from ORCA-job ./opt_b97-3c_parallel
N         -1.44316        3.90929        0.10714
C         -0.90545        2.90091        0.09538
C         -0.19719        1.65647        0.06282
C          1.23358        1.73083       -0.01959
C          2.07489        0.58614        0.09643
C          3.41961        0.41557        0.06125
C          3.62799       -0.89831        0.02081
C          2.49264       -1.59530        0.01134
C          1.47430       -0.69042        0.03692
C          0.03351       -0.83466        0.00451
C         -0.45869       -2.20408       -0.05609
C         -1.78172       -2.61888       -0.06121
N         -2.99505       -2.04412       -0.00021
C         -2.97283       -0.67702        0.06698
N         -2.10797        0.27022        0.07350
C         -0.82114        0.34602        0.04956
H          1.78967        2.60588       -0.34889
H          4.17685        1.19560        0.08265
H          4.61589       -1.35267        0.00021
H          2.41552       -2.67846       -0.01636
H          0.28861       -2.98602       -0.10175
H         -2.08622       -3.67502       -0.10940
H         -3.96269       -0.20081        0.13273
