26
Coordinates from ORCA-job ./opt_b97-3c_parallel
N          5.29048        1.57258       -0.00833
C          4.30065        1.00193       -0.00757
C          3.04549        0.29807       -0.00536
C          2.89076       -1.08181        0.00902
C          1.52735       -1.32903        0.00742
C          0.85985       -2.54273        0.01920
C         -0.53499       -2.51619        0.01584
C         -1.25029       -1.30453        0.00143
C         -2.64628       -1.41326       -0.00002
C         -3.55779       -0.30076       -0.01318
N         -3.50945        0.80230       -0.01208
C         -2.59013        1.41123       -0.02384
N         -3.13068        2.66573       -0.02648
C         -1.16882        1.18843       -0.02509
C         -0.55132       -0.06986       -0.01103
C          0.84652       -0.12899       -0.00760
C          1.78963        0.89381       -0.01590
H          3.68523       -1.82359        0.01978
H          1.40306       -3.48456        0.03082
H         -1.07163       -3.46237        0.02504
H         -3.13878       -2.38294        0.00931
H         -4.64122       -0.31833       -0.02081
H         -4.12832        2.78691        0.10340
H         -2.52977        3.47401        0.08808
H         -0.59535        2.11072       -0.03628
H          1.59735        1.96300       -0.02716
