32
Coordinates from ORCA-job ./opt_b97-3c_parallel
N          5.54505        1.23489        0.27250
C          4.42829        0.99900        0.20319
C          3.01688        0.68373        0.11184
C          2.74377       -0.64749       -0.17013
C          1.53594       -1.34907       -0.21983
C          1.77613       -2.68512       -0.72824
N          1.99047       -3.72629       -1.14951
C          0.21302       -0.88288        0.02029
C         -0.85792       -1.81542        0.24271
C         -0.69778       -3.18805        0.67397
N         -0.59495       -4.26862        1.03288
C         -2.19522       -1.42052        0.23255
C         -2.48793       -0.09397        0.00783
C         -3.76554        0.53480       -0.03632
N         -5.05525        0.10103        0.05316
N         -3.02620        1.38209       -0.14761
C         -2.15237        2.08723       -0.26768
N         -2.24261        3.41411       -0.57188
C         -1.50716        0.82225       -0.08593
C         -0.13875        0.49783       -0.00962
C          0.70774        1.61291        0.06710
C          2.08527        1.71680        0.21492
N          2.53738        2.99568        0.43321
H          3.63755       -1.24774       -0.35441
H         -2.99961       -2.13243        0.40912
H         -5.25961       -0.89135        0.07248
H         -5.82082        0.74992       -0.09414
H         -1.42923        3.88738       -0.94943
H         -3.15175        3.80854       -0.78487
H          0.21506        2.58049        0.09769
H          3.50622        3.12603        0.70587
H          1.86973        3.70641        0.71145
