27
Coordinates from ORCA-job ./opt_b97-3c_parallel
N          5.11673       -2.82699        0.00050
C          4.17123       -2.18477        0.00112
C          2.99851       -1.34847        0.00161
C          1.73984       -2.03249        0.00243
N          0.75167       -1.56361        0.00154
C          0.09694       -0.39368        0.00038
C          0.74655        0.86911       -0.00080
N          0.00095        2.01865       -0.00061
C         -1.34627        1.99032       -0.00078
N         -1.98855        3.19165       -0.00076
C         -2.01644        0.77939       -0.00035
C         -3.37204        0.49795       -0.00087
C         -3.48618       -0.88714       -0.00048
C         -4.72816       -1.61437       -0.00104
N         -5.72471       -2.17439       -0.00180
C         -2.21051       -1.44789        0.00018
C         -1.30194       -0.39481       -0.00008
C          2.15686        1.02723       -0.00050
C          2.70363        2.36939       -0.00330
N          3.14992        3.42232       -0.00739
C          3.15264        0.03704        0.00053
H          1.55154       -3.09950        0.00264
H         -1.44691        4.04905       -0.00042
H         -3.00193        3.23534       -0.00056
H         -4.18675        1.21799       -0.00124
H         -1.97464       -2.50919        0.00067
H          4.18464        0.38874       -0.00003
