30
Coordinates from ORCA-job ./opt_b97-3c_parallel
N         -5.50524       -0.55001        0.11978
C         -4.37794       -0.37303        0.06996
C         -2.95442       -0.14790       -0.00705
C         -2.42091        1.19686       -0.00937
N         -3.18271        2.33288       -0.00952
N         -1.37461        1.55221        0.00421
C         -0.12691        1.03279        0.00955
C          0.96354        1.91603        0.03154
C          2.27850        1.44608        0.03174
N          3.33060        2.31794        0.07173
C          2.47219        0.06653        0.00005
C          3.68560       -0.68178       -0.04050
N          5.02715       -0.47815       -0.17859
N          2.87876       -1.47516       -0.00531
C          1.94890       -2.12301       -0.02128
C          1.42953       -0.79467       -0.00748
C          0.09980       -0.36328       -0.00277
N         -0.91278       -1.26223       -0.01271
C         -2.01959       -1.25232       -0.01519
N         -2.39327       -2.56758       -0.05781
H         -4.19118        2.26537       -0.09963
H         -2.74757        3.24159       -0.11943
H          0.78007        2.98833        0.04939
H          3.14136        3.29123        0.28407
H          4.24071        1.95000        0.32694
H          5.35466        0.44201       -0.45098
H          5.62824       -1.26754       -0.38513
H          1.41576       -3.05976        0.08601
H         -3.37362       -2.81015        0.04020
H         -1.70405       -3.29724        0.08263
