31
Coordinates from ORCA-job ./opt_b97-3c_parallel
N         -3.36298        3.23587        0.30086
C         -2.93970        2.17757        0.21338
C         -2.38820        0.84030        0.11047
C         -0.99345        0.79839        0.14598
C         -0.08378       -0.27190        0.08905
C         -0.40600       -1.65002        0.04682
C         -1.69770       -2.19136       -0.05102
C         -2.93972       -1.57718       -0.10664
C         -3.27519       -0.23364       -0.02847
N         -4.62454        0.01361       -0.08534
C          0.66614       -2.57828        0.09038
N          0.49830       -3.93559        0.11595
N          1.96469       -2.23325        0.12945
C          2.25198       -0.92557        0.11577
C          3.62431       -0.52509        0.11826
C          3.17457        0.84391        0.04104
N          4.40061        1.45635        0.04984
C          1.83775        1.39956        0.03599
C          1.76481        2.68370       -0.59500
N          1.40940        3.74870       -0.38072
C          1.29142        0.06528        0.09216
H         -0.55824        1.78457        0.25581
H         -1.78997       -3.27030       -0.11702
H         -3.77358       -2.27004       -0.20988
H         -5.25131       -0.73138       -0.36834
H         -4.94318        0.97239       -0.18198
H         -0.41767       -4.30563        0.34074
H          1.30439       -4.50746        0.34239
H          4.39916       -0.99512       -0.48185
H          5.22794        0.89727       -0.12786
H          4.44400        2.44635       -0.16888
