27
Coordinates from ORCA-job ./opt_b97-3c_parallel
N         -5.76954       -0.50264       -0.19062
C         -4.63258       -0.55866       -0.09747
C         -3.20728       -0.58923       -0.00875
C         -2.48579       -1.82728        0.00931
N         -1.45518       -2.21703        0.06266
C         -0.50691       -1.66281        0.06163
C         -0.16325       -0.27071        0.07592
C         -1.09772        0.75122        0.09071
C         -2.54421        0.62668        0.05140
C         -0.61080        2.11014        0.12651
N         -0.81278        3.19396        0.15128
N          0.72909        2.50455        0.12528
C          1.60699        1.47758        0.08754
N          2.98612        1.57142        0.05398
C          3.48993        0.27039        0.01075
N          4.59737        0.27821       -0.02839
C          2.40428       -0.67949        0.02406
C          2.54071       -2.10036       -0.01743
N          2.69045       -3.23093       -0.05214
C          1.22056        0.11524        0.06925
H         -3.06672       -2.76173       -0.04202
H         -0.19983       -2.72205        0.05031
H         -3.13223        1.54151        0.04703
H         -1.76561        3.01171        0.46481
H         -0.74029        4.20582        0.04419
H          5.05446       -0.63644       -0.02631
H          5.35531        0.95412       -0.14142
