30
Coordinates from ORCA-job ./opt_b97-3c_parallel
N          4.89349        3.10570       -0.01958
C          4.03333        2.35290       -0.01591
C          2.96331        1.38860       -0.00935
C          1.65721        1.97311       -0.01139
N          0.77646        1.32773       -0.00627
C          0.16120        0.13886        0.00461
C          0.93185       -1.05146        0.01625
C          0.24721       -2.28607        0.03270
C         -1.13680       -2.37115        0.04159
N         -1.76552       -3.58271        0.05906
C         -1.92542       -1.18418        0.03824
C         -3.19071       -0.50551        0.01579
C         -3.54769        0.88603       -0.01116
C         -4.95822        1.10232        0.02114
N         -5.75856        1.91757        0.01525
C         -2.14026        1.16198       -0.02349
N         -1.82232        2.49133       -0.08561
C         -1.25288        0.08018        0.00623
C          2.35903       -1.06785        0.00927
C          3.06814       -2.33059        0.01154
N          3.64103       -3.31967        0.01056
C          3.25020        0.02229       -0.00215
H          1.38392        3.02181       -0.00051
H          0.77829       -3.23378        0.04048
H         -1.21960       -4.42082       -0.10931
H         -2.76429       -3.61890       -0.11296
H         -3.82117       -1.39230        0.03419
H         -2.55503        3.18160        0.04107
H         -0.85723        2.77258        0.04613
H          4.31343       -0.21925       -0.00476
