27
Coordinates from ORCA-job ./opt_b97-3c_parallel
N         -4.25049        1.70223        0.28078
C         -3.35546        0.99717        0.18821
C         -2.21960        0.10913        0.09374
C         -2.69431       -1.23723        0.27889
N         -2.36182       -2.27315        0.10135
C         -1.30434       -2.46636       -0.14325
C         -0.01588       -1.82454       -0.06820
C          0.91045       -2.86354       -0.45587
N          1.62825       -3.69385       -0.77554
C          0.21570       -0.42838       -0.02107
C         -0.86730        0.49927       -0.02688
C         -0.61122        1.87756       -0.15218
C          0.67460        2.38741       -0.25416
N          0.88137        3.72318       -0.44352
C          1.79581        1.51004       -0.16234
C          3.21944        1.55540        0.08856
C          3.72902        0.31231        0.39832
C          2.69590       -0.58682        0.36785
C          1.53099        0.09600        0.02788
H         -3.67138       -1.57463        0.61036
H         -1.55097       -3.48618       -0.42418
H         -1.42764        2.59352       -0.19961
H          0.09607        4.36378       -0.40905
H          1.82343        4.09486       -0.39246
H          3.87110        2.42501        0.08047
H          4.76106        0.09102        0.65787
H          2.80421       -1.62745        0.65133
