32
Coordinates from ORCA-job ./opt_b97-3c_parallel
N          3.31590       -3.70450       -0.37721
C          2.85954       -2.65785       -0.31745
C          2.30030       -1.32238       -0.22908
C          3.25955       -0.36054       -0.52477
C          3.18989        1.01235       -0.41512
C          2.15266        1.79219        0.06853
N          2.50347        3.11443        0.20565
C          0.83413        1.38848        0.35572
C         -0.00442        2.41544        0.95576
N         -0.64492        3.22972        1.44116
C          0.24401        0.11359        0.14969
C          0.92447       -1.12787        0.04664
C          0.16227       -2.28278        0.31583
C         -1.18378       -2.23759        0.62261
C         -1.95429       -1.05450        0.42724
C         -3.34330       -0.93639        0.09067
N         -4.35009       -1.85804        0.09471
C         -3.44943        0.40785       -0.39504
C         -2.15960        1.00511       -0.59844
N         -2.27812        2.16895       -1.30389
C         -1.22271        0.11832        0.04574
H          4.23912       -0.72402       -0.83542
H          4.11427        1.53067       -0.66713
H          1.77167        3.79802        0.37246
H          3.36893        3.43741       -0.21298
H          0.60126       -3.27467        0.35873
H         -1.71606       -3.15227        0.87288
H         -5.30119       -1.54923       -0.07292
H         -4.20465       -2.74305        0.56745
H         -4.39537        0.90389       -0.59184
H         -3.20355        2.57161       -1.40132
H         -1.49509        2.81343       -1.28272
