29
Coordinates from ORCA-job ./opt_b97-3c_parallel
N          2.65738        3.35390        0.24566
C          2.20748        2.30479        0.17555
C          1.65470        0.96751        0.08213
C          2.64913       -0.08419        0.01240
N          3.97620        0.10526       -0.28120
N          2.71028       -1.18659        0.04888
C          1.85006       -1.87790        0.06772
N          2.47998       -3.08564        0.17490
C          0.41903       -1.76450        0.00449
C         -0.30883       -0.56616        0.01897
C          0.26194        0.74019        0.07015
N         -0.54468        1.84568        0.10605
C         -1.89019        1.72633        0.08572
C         -2.48070        0.47561        0.02951
C         -3.81771        0.12082       -0.00026
N         -4.80723        1.06203        0.00586
C         -3.95136       -1.32178       -0.03294
C         -2.56214       -1.73916       -0.05229
C         -1.70806       -0.64652       -0.00324
H          4.62778       -0.66401       -0.17488
H          4.35314        1.04680       -0.28620
H          1.94496       -3.94333        0.09849
H          3.48687       -3.14023        0.06913
H         -0.06359       -2.73636       -0.03126
H         -2.46797        2.64723        0.11886
H         -4.55805        2.03139       -0.15624
H         -5.75477        0.77163       -0.20885
H         -4.82682       -1.90451       -0.30004
H         -2.20101       -2.76219       -0.09375
