29
Coordinates from ORCA-job ./opt_b97-3c_parallel
N          0.98839       -3.71425        1.04069
C          0.51302       -2.74831        0.65540
C         -0.11858       -1.53304        0.18985
C         -1.50534       -1.63573        0.12782
C         -2.32807       -0.53010       -0.23940
C         -3.59694        0.14829       -0.23265
N         -4.53821       -0.82852       -0.38815
C         -3.97041        1.53043       -0.09621
C         -2.57243        1.81573        0.02586
C         -1.69752        0.73688       -0.03644
C         -0.29842        0.86185        0.03795
N          0.20691        2.09296        0.15549
C          1.01322        2.81355        0.26729
C          2.34793        2.30931        0.21222
C          2.76928        1.00010       -0.03790
N          4.13603        0.90856       -0.16035
C          1.96339       -0.17192       -0.14510
C          2.69733       -1.33437       -0.62079
N          3.28882       -2.22923       -1.01794
C          0.53998       -0.27928        0.01516
H         -2.01759       -2.57256        0.33839
H         -5.51244       -0.59951       -0.22521
H         -4.25412       -1.79869       -0.30711
H         -4.65770        2.07105       -0.73901
H         -2.22993        2.83913        0.15851
H          0.65922        3.74413        0.69443
H          3.05834        3.13018        0.28760
H          4.54194        0.04009       -0.49439
H          4.68235        1.75814       -0.24695
