33
Coordinates from ORCA-job ./opt_b97-3c_parallel
N          3.42231        2.03118       -1.35554
C          2.78200        1.22382       -0.85939
C          1.97158        0.17369       -0.25997
C          2.65894       -1.06783       -0.13178
N          4.02235       -1.11869       -0.30744
C          2.11337       -2.31065        0.19724
C          0.72763       -2.63585        0.30655
N          0.27455       -3.85233        0.72459
N         -0.01700       -1.85944        0.14883
C         -0.39490       -0.58743       -0.01443
C          0.57814        0.44480       -0.04304
C          0.10378        1.77336        0.16900
C          0.94042        2.84618        0.67669
N          1.58196        3.69567        1.09367
C         -1.26551        2.05454        0.11155
N         -1.82181        3.27941        0.36937
C         -2.20960        1.06434       -0.28257
C         -3.58950        0.66253       -0.33114
C         -4.16214       -0.64964       -0.21099
C         -2.84004       -1.19254       -0.11278
N         -2.76207       -2.55743       -0.07992
C         -1.77370       -0.28672       -0.10989
H          4.48283       -2.02024       -0.36241
H          4.50106       -0.30804       -0.68724
H          2.74943       -3.18971        0.28721
H          0.93381       -4.54118        1.06958
H         -0.69956       -3.95732        0.98600
H         -1.24441        4.00199        0.78719
H         -2.82863        3.35216        0.46481
H         -4.21304        1.55321       -0.35294
H         -4.97400       -1.03312       -0.82053
H         -3.58476       -3.09167       -0.33617
H         -1.85457       -2.98136       -0.24461
