35
Coordinates from ORCA-job ./opt_b97-3c_parallel
N         -2.76847       -4.05322       -0.37252
C         -2.07478       -3.14956       -0.28304
C         -1.20237       -1.99793       -0.15633
C          0.18810       -2.14768        0.00439
N          0.68090       -3.42963       -0.05118
C          1.03735       -1.01027        0.13313
C          2.45120       -1.12434        0.31307
N          3.05648       -2.28337        0.72358
C          3.36001       -0.07857        0.10498
C          3.00704        1.22212       -0.40148
N          3.78194        1.89881       -1.29844
N          2.13077        1.84333       -0.13982
C          1.18331        1.48017        0.29819
N          0.99102        2.30586        1.37273
C          0.42258        0.26842        0.08347
C         -0.95803        0.39419       -0.11896
C         -1.63398        1.66138       -0.21885
C         -1.49807        2.95496       -0.81585
N         -1.54919        4.03013       -0.43084
C         -2.87559        0.92580       -0.28575
N         -4.12894        1.47526       -0.27140
C         -3.16397       -0.48206       -0.39559
C         -1.75889       -0.72259       -0.22292
H          1.66796       -3.54853       -0.25307
H          0.05303       -4.17250       -0.34015
H          4.02779       -2.24458        1.01204
H          2.47325       -3.00629        1.13195
H          4.42547       -0.21689        0.27873
H          4.69949        1.54260       -1.54107
H          3.57871        2.87153       -1.49955
H          1.49335        3.18625        1.40643
H          0.12338        2.24619        1.89335
H         -4.21616        2.48105       -0.37455
H         -4.91935        0.89973       -0.54166
H         -3.95219       -1.02215        0.12293
