29
Coordinates from ORCA-job ./opt_b97-3c_parallel
N          5.09735        1.57028       -0.02663
C          4.06987        1.06934       -0.01388
C          2.78219        0.42297        0.00198
C          1.73861        1.41901       -0.04588
N          0.64829        1.23130       -0.06101
C         -0.28743        0.25148       -0.03909
C          0.12811       -1.09970        0.02727
C         -0.80899       -2.13477        0.05709
C         -2.17311       -1.87630        0.02110
N         -3.08133       -2.89486        0.05045
C         -2.62979       -0.52140       -0.04898
C         -3.68598        0.45360       -0.07130
C         -3.67886        1.88312       -0.21532
C         -2.24917        1.81448       -0.16377
N         -1.58797        3.01059       -0.21376
C         -1.66839        0.54588       -0.08297
N          1.43705       -1.44112        0.05999
C          2.44008       -0.97896        0.04927
N          3.35840       -1.98772        0.00771
H          1.82595        2.49844       -0.08495
H         -0.46310       -3.16544        0.10864
H         -2.75541       -3.84498       -0.08921
H         -4.05255       -2.68711       -0.15418
H         -4.62110       -0.08741        0.05062
H         -4.30946        2.56698        0.34459
H         -0.59471        3.02141       -0.00869
H         -2.11495        3.86771       -0.08942
H          3.06003       -2.94814        0.13339
H          4.34757       -1.77588        0.07889
