34
Coordinates from ORCA-job ./opt_b97-3c_parallel
N          5.73072        1.49781        0.12541
C          4.64891        1.12841        0.12341
C          3.27228        0.67522        0.11311
C          2.34324        1.67297        0.36246
C          0.95946        1.61101        0.35282
C          0.08041        0.54578        0.13219
C          0.43080       -0.81481       -0.01290
C          1.74881       -1.30662       -0.13976
C          2.99364       -0.67562       -0.12677
N          4.05192       -1.52216       -0.35285
C         -0.62005       -1.76629       -0.01512
C         -0.38781       -3.19919       -0.07857
N         -0.21249       -4.32837       -0.11601
C         -1.95076       -1.36163        0.10263
N         -3.00582       -2.23843        0.10793
C         -2.35890        0.01236        0.12739
C         -3.64174        0.66053        0.08004
N         -4.93394        0.26232        0.27657
C         -3.33609        2.04849       -0.10803
C         -1.91965        2.27279       -0.16195
N         -1.61841        3.54660       -0.55628
C         -1.30990        0.98807        0.07196
H          2.74479        2.66578        0.55996
H          0.51082        2.57860        0.55302
H          1.85896       -2.37336       -0.30315
H          3.89505       -2.52402       -0.35179
H          4.99717       -1.18054       -0.20990
H         -3.92849       -1.87190       -0.09979
H         -2.82337       -3.21047       -0.11871
H         -5.64443        0.97137        0.41926
H         -5.09552       -0.65557        0.67614
H         -4.08649        2.82908       -0.19591
H         -0.67773        3.74336       -0.88113
H         -2.36729        4.15447       -0.86747
