25
Coordinates from ORCA-job ./opt_b97-3c_parallel
N         -0.36911       -2.83159       -0.28316
C         -0.00513       -1.80266       -0.10515
C          1.39302       -1.82140       -0.08511
C          2.17650       -0.61708        0.09702
C          3.53171       -0.58983        0.21686
C          3.50524        0.76732        0.12442
N          2.43886        0.98800        0.28011
C          1.41145        0.60297        0.15769
C          0.04932        0.65961        0.04999
C         -0.40779        1.93862       -0.08679
N         -1.61151        2.52460       -0.14640
C         -2.68394        1.73408       -0.00814
N         -2.84215        0.46580        0.21779
C         -2.09015       -0.59102        0.15555
N         -3.02940       -1.16739        0.21038
C         -0.65061       -0.51729        0.03494
H         -0.14318       -3.82456       -0.28794
H         -1.18111       -2.71029       -0.88700
H          1.97687       -2.73464       -0.21257
H          4.16385       -1.18071       -0.44204
H          4.38027        1.42996        0.20244
H          0.12537        2.89557       -0.19277
H         -3.54233        2.40902       -0.14387
H         -3.82328       -1.17873        0.84744
H         -2.28815       -1.70679        0.65407
