31
Coordinates from ORCA-job ./opt_b97-3c_parallel
N         -4.61221       -3.24767       -0.00716
C         -3.80113       -2.44263       -0.00689
C         -2.78996       -1.40614       -0.00570
C         -1.49542       -2.01039       -0.00977
N         -0.55343       -1.46278       -0.00812
C          0.03672       -0.26344       -0.00009
C         -0.70103        0.95028        0.01030
N         -0.01985        2.14062        0.02811
C          1.32513        2.19435        0.03313
N          1.89128        3.43445        0.06775
C          2.06793        1.02800        0.01593
C          3.43654        0.84160        0.01475
C          3.78094       -0.56831       -0.00260
C          5.14925       -0.97787       -0.00058
N          6.03907       -1.69642       -0.00260
C          2.44430       -1.14353       -0.01171
N          2.22289       -2.49209       -0.03658
C          1.44084       -0.17834        0.00026
C         -2.12683        1.02839        0.00539
C         -2.69415        2.37248        0.00856
N         -3.15328        3.41982        0.00981
C         -3.07807       -0.03127       -0.00173
N         -4.42023        0.28937       -0.00431
H         -1.23149       -3.06158       -0.00604
H          2.89056        3.53783       -0.06445
H          1.29491        4.24876       -0.03532
H          4.10851        1.69627        0.02482
H          3.00763       -3.13415        0.00362
H          1.27579       -2.85187        0.00613
H         -4.71241        1.26123        0.00344
H         -5.12254       -0.44307       -0.00132
