29
Coordinates from ORCA-job ./opt_b97-3c_parallel
N         -5.55719       -1.43082       -0.11200
C         -4.43195       -1.61543       -0.18867
C         -3.69956       -0.79882       -0.03845
C         -2.41140       -1.23688       -0.02959
N         -1.03608       -1.22944       -0.02653
C         -0.37818       -0.00149       -0.04696
C         -1.01396        1.32192       -0.05285
N         -0.22098        2.42093       -0.08616
C          1.13071        2.40287       -0.11084
C          1.75898        1.11082       -0.07498
C          3.10694        0.87972       -0.05921
N          3.86729        1.68467       -0.07135
C          3.22244       -0.56603       -0.01596
C          4.49991       -1.22208        0.01680
N          5.54697       -1.65272        0.15945
C          1.88439       -1.14056       -0.00824
N          1.74485       -2.23625        0.03016
C          1.00340       -0.00721       -0.04811
N         -2.39281        1.56302        0.01208
C         -3.29624        0.51020        0.01105
N         -4.04542        1.32583        0.13654
H         -1.97427       -2.25003       -0.02387
H          1.66154        3.36712       -0.14044
H          4.73534        1.14838       -0.02529
H          4.14940        2.66403       -0.04804
H          2.43563       -2.98560        0.08396
H          0.83182       -2.68725        0.03623
H         -4.91848        0.79058        0.18181
H         -4.33954        2.29317        0.28532
