27
Coordinates from ORCA-job ./opt_b97-3c_parallel
N          3.76157       -1.82301       -0.39534
C          2.63748       -1.16345        0.00792
N          1.79221       -1.88817        0.12289
C          0.69358       -1.74456        0.26528
C         -0.05632       -0.51240        0.09580
C          0.59632        0.72902       -0.03540
C          2.04977        0.79743        0.08039
N          2.69454        1.72774        0.85030
N          2.77599       -0.04994        0.01035
C         -0.18938        1.87127       -0.27783
N          0.36121        3.10233       -0.49488
N         -1.54153        1.83535       -0.33998
C         -2.14250        0.63514       -0.17555
N         -3.44425        0.32948       -0.18961
C         -3.03665       -0.71065       -0.01480
N         -4.26688       -1.30888        0.07498
N         -2.29535       -1.55213        0.13595
C         -1.45088       -0.51820        0.02630
H          4.62732       -1.31757       -0.54283
H          3.75581       -2.83077       -0.50411
H          0.31981       -2.74565        0.44374
H          3.70461        1.70921        0.92622
H          2.21591        2.59219        1.08322
H         -0.25490        3.85494       -0.78219
H          1.32808        3.14286       -0.79987
H         -5.11074       -0.74603        0.06594
H         -4.34140       -2.28959        0.31942
