29
Coordinates from ORCA-job ./opt_b97-3c_parallel
N          5.03168        1.97385        0.21906
C          4.23345        1.17368        0.05164
C          2.84214        0.86296       -0.02323
C          2.51387       -0.53565        0.00604
C          1.29848       -1.30034       -0.01707
C          0.56444       -2.52913       -0.01774
N          1.23426       -3.71833       -0.04373
C         -0.82410       -2.49242        0.01470
C         -1.51712       -1.28064        0.03596
N         -2.86810       -1.33183        0.07211
C         -3.79209       -0.72584        0.10104
C         -3.71382        0.71236        0.14503
C         -2.54627        1.55017        0.04026
N         -2.62508        2.90033       -0.13003
N         -1.53412        1.10690        0.02855
C         -0.82354       -0.04751        0.02134
C          0.58906       -0.05086       -0.00163
C          1.42328        1.07098       -0.00741
N          1.02450        2.37958        0.01050
H          3.18618       -1.39025        0.04545
H          0.71293       -4.56798       -0.23091
H          2.22798       -3.71410       -0.24590
H         -1.38207       -3.42679        0.02284
H         -4.65687       -1.36122        0.24795
H         -4.75429        1.02433        0.18355
H         -1.79650        3.42029       -0.39557
H         -3.52807        3.33074       -0.29480
H          0.05074        2.58077        0.21421
H          1.71436        3.09620        0.20795
