27
Coordinates from ORCA-job ./opt_b97-3c_parallel
N          4.18154        2.71401       -0.00281
C          3.51574        1.78462       -0.00201
C          2.68323        0.59753       -0.00093
C          1.31232        0.86897       -0.00000
C          0.20810        0.00701        0.00092
C          0.23151       -1.40295        0.00122
C          1.35355       -2.22944        0.00085
C          2.70152       -1.90413       -0.00025
C          3.31486       -0.65640       -0.00126
N          4.68683       -0.71161       -0.00298
C         -0.99205       -2.09880        0.00170
N         -2.21129       -1.51952        0.00207
C         -2.22525       -0.17678        0.00189
C         -3.46569        0.57060        0.00187
C         -4.86868        0.30224        0.00058
N         -5.95176       -0.06309        0.00341
C         -2.86767        1.89477        0.00084
C         -1.48239        1.89498        0.00055
C         -1.07510        0.58230        0.00128
H          1.07939        1.92950       -0.00028
H          1.16247       -3.30081        0.00123
H          3.36768       -2.76550       -0.00062
H          5.23039        0.14546       -0.00202
H          5.16395       -1.60620       -0.00133
H         -1.02008       -3.18685        0.00180
H         -3.41385        2.83494        0.00020
H         -0.85823        2.78397       -0.00027
