27
Coordinates from ORCA-job ./opt_b97-3c_parallel
N          5.54297        0.64923       -0.05108
C          4.43931        0.35358       -0.03970
C          3.05195       -0.03462       -0.02122
C          2.69618       -1.38282        0.02375
C          1.40347       -1.92270        0.04990
C          0.15518       -1.27678        0.03383
N         -0.92081       -2.11355        0.06926
C         -2.17450       -1.61289        0.05332
N         -3.20199       -2.50961        0.08545
C         -2.38536       -0.24318       -0.00448
C         -3.56753        0.47315       -0.03479
C         -3.29323        1.89332       -0.11746
C         -1.84282        1.90671       -0.10029
N         -1.07838        3.03796       -0.15268
C         -1.32553        0.61563       -0.04173
C         -0.00936        0.12895       -0.01900
N          1.03341        0.97239       -0.04850
C          2.12466        1.05621       -0.04892
H          3.51148       -2.10313        0.04112
H          1.37222       -3.01006        0.08590
H         -2.98795       -3.48966       -0.06195
H         -4.13596       -2.18607       -0.13813
H         -4.52611       -0.03850       -0.00317
H         -3.97399        2.71462        0.08166
H         -1.52128        3.93821       -0.00698
H         -0.08140        2.95633        0.01626
H          2.32781        2.12053       -0.04964
