30
Coordinates from ORCA-job ./opt_b97-3c_parallel
N          5.47325       -1.49608        0.04162
C          4.44641       -0.99639       -0.00303
C          3.15562       -0.35833       -0.04730
C          2.13374       -1.37773       -0.03503
N          1.03566       -1.24661       -0.02681
C          0.11349       -0.25708       -0.02751
C          0.47531        1.10931       -0.04214
C         -0.52481        2.09422       -0.04603
C         -1.87951        1.75287       -0.02691
N         -2.84429        2.72137       -0.03729
C         -2.20526        0.39833       -0.00181
C         -3.48454       -0.23069        0.04273
N         -4.82466        0.00451        0.14225
N         -2.75955       -1.10085        0.01792
C         -1.89490       -1.83274        0.00157
N         -1.59776       -3.16405       -0.02690
C         -1.25110       -0.55948       -0.00992
N          1.76963        1.49957       -0.05337
C          2.77099        1.03321       -0.05317
N          3.66193        2.06658       -0.03463
H          2.24066       -2.45513       -0.08466
H         -0.23867        3.14383       -0.06197
H         -3.79870        2.44379       -0.23914
H         -2.57257        3.67374       -0.25476
H         -5.14696        0.94044        0.36094
H         -5.44996       -0.76756        0.34280
H         -2.33267       -3.85690        0.05593
H         -0.63124       -3.46720        0.02304
H          3.32964        3.01495        0.09770
H          4.64888        1.87904        0.10339
