26
Coordinates from ORCA-job ./opt_b97-3c_parallel
N         -4.00962       -2.45366       -0.37937
C         -3.65782       -1.37801       -0.22383
C         -2.54659       -0.49430       -0.04238
C         -2.88641        0.89492        0.00960
C         -2.07138        1.88674        0.43995
C         -0.77958        2.07252        0.05003
N         -0.66094        3.17136       -0.03820
C          0.21331        1.02817       -0.03265
C          1.56743        1.53860       -0.21251
N          2.37540        2.27831       -0.34491
N          2.61099        0.68331       -0.21805
C          2.39825       -0.63071       -0.06112
N          3.30851       -1.65322       -0.05983
C          2.54483       -2.80918        0.08817
N          1.18697       -2.51577        0.16664
C          1.10084       -1.14669        0.07856
C         -0.02973       -0.34723        0.07774
C         -1.26273       -0.99676        0.09620
H         -3.93050        1.15237       -0.14949
H         -2.49486        2.52818        1.21798
H          0.11414        3.65505        0.41460
H         -1.45524        3.80909        0.02044
H          3.16189        2.92460       -0.27930
H          1.60922        2.79713       -0.77420
H          2.94587       -3.83508        0.12772
H         -1.23653       -2.08115        0.12390
