25
Coordinates from ORCA-job ./opt_b97-3c_parallel
N          5.53511        0.35416       -0.11906
C          4.40488        0.20667       -0.05732
C          2.98151        0.00708        0.02815
C          2.58244       -1.37641        0.08311
N          1.51322       -1.65931        0.04555
C          0.24440       -1.19872        0.01077
N         -0.79242       -2.08137       -0.02698
C         -2.06575       -1.62655       -0.04790
N         -3.05356       -2.56565       -0.10803
C         -2.33140       -0.26029       -0.01389
C         -3.56746        0.44838       -0.02582
N         -2.77922        1.26438        0.00292
C         -1.86878        1.93804        0.03913
N         -1.29435        3.17450        0.09768
C         -1.31464        0.62417        0.01862
C          0.01801        0.20061        0.01759
N          1.03308        1.09627        0.01217
C          2.13707        1.17475        0.00001
H          3.18564       -2.24879        0.30326
H         -4.02870       -2.29020       -0.05912
H         -2.80948       -3.54879       -0.09586
H         -4.57473        0.05524        0.02854
H         -0.28698        3.25643        0.00680
H         -1.85923        4.00770       -0.01180
H          2.41356        2.20328       -0.19854
