27
Coordinates from ORCA-job ./opt_b97-3c_parallel
N         -3.47700       -2.89808       -0.44699
C         -2.76489       -2.01121       -0.33407
C         -1.85565       -0.90197       -0.17072
C         -0.48479       -1.16653       -0.23432
C          0.55697       -0.23825       -0.06087
C          0.37465        1.15842        0.08570
C          1.47828        1.99811        0.31948
C          2.77140        1.48279        0.37878
C          2.91320        0.11896        0.19066
C          4.05037       -0.70993        0.18186
C          3.43312       -1.99476       -0.05210
N          2.30944       -2.00139       -0.15069
C          1.86985       -0.72770       -0.02086
C         -0.92679        1.76877       -0.04697
N         -1.10904        2.96438       -0.68862
N         -1.97021        1.42567        0.09169
C         -2.39369        0.40348        0.13753
N         -3.64630        0.59044        0.66069
H         -0.20982       -2.20583       -0.39905
H          1.33338        3.06830        0.44678
H          3.63127        2.12364        0.55499
H          5.10360       -0.48029        0.30206
H          3.88802       -2.97354       -0.15097
H         -2.01991        3.40894       -0.67899
H         -0.30229        3.53674       -0.91304
H         -4.28437       -0.19597        0.69907
H         -4.04387        1.52277        0.68523
