30
Coordinates from ORCA-job ./opt_b97-3c_parallel
N          5.15759        3.16804       -0.26231
C          4.21255        2.53064       -0.18078
C          3.01648        1.72892       -0.09260
C          1.81601        2.38545       -0.28030
C          0.52758        1.88794       -0.17102
C          0.04370        0.57507       -0.02175
C          0.84637       -0.60500        0.02024
C          2.23825       -0.62879        0.32255
C          2.83997       -1.80962        0.91244
N          3.32700       -2.72333        1.39712
C          3.17711        0.40274        0.26704
C          0.18309       -1.83405       -0.27212
C          0.83337       -3.01595       -0.79964
N          1.32753       -3.95262       -1.22986
C         -1.20007       -1.92501       -0.28461
C         -1.99182       -0.84600        0.18946
C         -3.30714       -0.27232        0.10506
N         -4.25478       -1.24022       -0.07388
C         -3.70722        1.10734        0.17311
C         -4.83683        1.96286        0.35133
N         -5.97205        2.05253        0.45216
C         -2.32068        1.45687        0.06132
C         -1.37141        0.43397        0.04180
H          1.87956        3.45338       -0.48762
H         -0.18575        2.68900       -0.28959
H          4.20565        0.12608        0.50740
H         -1.70708       -2.84015       -0.58552
H         -5.23265       -0.98920        0.03018
H         -3.99405       -2.21205        0.05200
H         -2.11926        2.52192        0.04721
