26
Coordinates from ORCA-job ./opt_b97-3c_parallel
N          4.07891       -2.77594        0.00238
C          3.22079       -2.02013        0.00184
C          2.16693       -1.03355        0.00019
C          0.94377       -1.63102       -0.00209
C         -0.35676       -1.23289       -0.00006
C         -1.37317       -2.27145        0.00036
C         -2.72815       -2.01360        0.00064
C         -3.13234       -0.65410        0.00135
N         -4.37609       -0.20489        0.00139
C         -4.13483        1.15852        0.00088
N         -2.88092        1.52417        0.00040
C         -2.21031        0.41459        0.00044
C         -0.83588        0.14997       -0.00027
C         -0.00504        1.26944       -0.00142
C          1.44975        1.37173       -0.00167
C          1.70637        2.79258       -0.00239
N          2.25914        3.79349       -0.00181
C          2.42781        0.38303       -0.00053
N          3.49202        0.70593       -0.00008
H          1.00600       -2.72061       -0.00609
H         -1.06092       -3.31334       -0.00057
H         -3.44026       -2.83526        0.00009
H         -4.96878        1.87644        0.00054
H         -0.52968        2.22366       -0.00185
H          4.31560        0.10670        0.00039
H          3.82634        1.66845        0.00059
