29
Coordinates from ORCA-job ./opt_b97-3c_parallel
N          0.87209        4.24067        0.36892
C          0.38601        3.21049        0.26905
C         -0.22714        1.90037        0.16115
C         -1.62185        1.84418        0.14743
N         -2.43575        2.94279        0.23134
C         -2.30248        0.59751        0.02826
C         -3.62243        0.07204       -0.24157
C         -3.59337       -1.28111       -0.49739
C         -2.29176       -1.69974       -0.40818
C         -1.49745       -0.60251       -0.08040
C         -0.08794       -0.56459        0.04586
C          0.67066       -1.75778        0.14789
C          0.21412       -3.07691        0.52274
N         -0.12982       -4.12232        0.83253
C          2.09947       -1.84924        0.30954
N          3.00152       -1.26037        0.06935
C          2.92633       -0.17387       -0.09180
N          4.17185        0.06517       -0.59972
C          1.94826        0.86734        0.07450
C          0.54606        0.71526        0.09499
H         -2.02573        3.83283        0.49497
H         -3.42616        2.80382        0.39717
H         -4.56290        0.61549       -0.28685
H         -4.44810       -1.90171       -0.75536
H         -1.97914       -2.71237       -0.63287
H          2.72429       -2.72424        0.46056
H          4.47974        1.01969       -0.74992
H          4.87688       -0.66299       -0.57093
H          2.46531        1.82224        0.12638
