24
Coordinates from ORCA-job ./opt_b97-3c_parallel
N         -5.37073       -0.04501        0.08898
C         -4.23302        0.05931        0.07591
C         -2.79760        0.17545        0.05192
C         -2.35435        1.53195       -0.03462
N         -1.29000        1.76989        0.00074
C         -0.01421        1.37494        0.03649
C          0.94417        2.39863        0.05388
C          2.30386        2.11810        0.05716
C          2.67915        0.78532        0.02987
C          4.00572        0.26300        0.00116
N          3.32813       -0.63772       -0.01814
C          2.52845       -1.43139       -0.02619
C          1.76560       -0.22124        0.02362
C          0.36556        0.00945        0.04554
C         -0.58393       -1.05580        0.08656
C         -0.15708       -2.43525        0.16283
N          0.15216       -3.53393        0.22813
C         -1.99002       -0.96233        0.10053
H         -2.79130        2.35286       -0.59157
H          0.62350        3.43863        0.05945
H          3.04401        2.91424        0.06817
H          4.94641        0.79282        0.09118
H          2.58945       -2.16240       -0.82417
H         -2.53892       -1.90287        0.15703
