30
Coordinates from ORCA-job ./opt_b97-3c_parallel
N         -2.73924       -3.75466       -0.17472
C         -2.04056       -2.85302       -0.10453
C         -1.16108       -1.71361       -0.03824
C          0.21579       -1.86410       -0.01270
C          1.12106       -0.76791        0.01924
C          2.48799       -1.14556        0.10720
N          2.82776       -2.45011        0.37238
C          3.62940       -0.36495       -0.03014
C          3.73934        0.98943       -0.24405
C          2.73015        1.92595       -0.26182
C          1.35386        1.76658       -0.11893
N          0.75592        3.00045       -0.12479
C          0.58834        0.56608       -0.02950
C         -0.83584        0.66836        0.01008
N         -1.66357        1.74445        0.04166
C         -2.75267        1.47337        0.06192
N         -3.80473        2.33724        0.13037
C         -2.96711        0.05046        0.02279
C         -1.63865       -0.42800        0.00579
H          0.55910       -2.89323       -0.04734
H          2.11768       -3.05378        0.77085
H          3.79005       -2.64583        0.62591
H          4.58698       -0.88202        0.02178
H          4.74941        1.37356       -0.36481
H          3.09344        2.94542       -0.39092
H          1.33817        3.82367       -0.02342
H         -0.21456        3.07218        0.15989
H         -3.64121        3.33576        0.06547
H         -4.75309        1.99548        0.02476
H         -3.91110       -0.48470        0.04667
