30
Coordinates from ORCA-job ./opt_b97-3c_parallel
N         -0.41787       -3.60650       -0.87543
C         -0.66685       -2.53767       -0.55036
C         -1.01395       -1.18198       -0.16000
C         -2.41792       -0.94198       -0.11284
N         -3.30022       -1.98607       -0.26673
C         -3.06771        0.27812        0.08584
C         -2.46686        1.56774        0.19753
N         -3.15174        2.67925        0.59222
N         -1.40086        1.70737        0.03628
C         -0.18377        1.17148       -0.08887
C          0.86114        2.09173       -0.22272
C          2.18502        1.69256       -0.32106
N          3.18130        2.60588       -0.51483
C          2.50030        0.30469       -0.21526
C          3.64401       -0.50532        0.14344
C          3.26915       -1.74013        0.62708
C          1.90131       -1.80552        0.59888
C          1.40983       -0.61388        0.06833
C          0.04685       -0.22432       -0.04994
H         -2.94316       -2.87388       -0.60469
H         -4.27702       -1.77444       -0.43797
H         -4.15501        0.33256        0.10708
H         -4.16058        2.64682        0.68699
H         -2.69944        3.58609        0.56851
H          0.62891        3.15429       -0.26946
H          2.96721        3.59677       -0.50214
H          4.14919        2.30819       -0.46119
H          4.69602       -0.23547        0.09649
H          3.93864       -2.51286        0.99668
H          1.33272       -2.63607        1.00565
