30
Coordinates from ORCA-job ./opt_b97-3c_parallel
N          1.35304        4.52841        0.20945
C          0.91896        3.61378       -0.32173
C          0.60278        2.22742       -0.16754
C         -0.81184        1.95134       -0.07775
C         -1.35988        0.69738        0.05407
C         -2.72789        0.66492       -0.02293
N         -3.65827        1.26065       -0.08412
N         -3.68407       -0.27507       -0.07068
C         -3.31122       -1.56217        0.01653
N         -2.15404       -2.11946        0.20912
C         -0.90984       -1.75369        0.21667
N         -0.81783       -2.85132        0.29289
C         -0.50033       -0.37284        0.11590
C          0.92392       -0.16475        0.05206
C          1.96223       -1.04515        0.06817
C          2.30347       -2.43358        0.15239
N          2.69382       -3.47931       -0.09284
C          3.05486       -0.11465       -0.08179
N          4.15667       -0.18692       -0.17818
C          2.81585        1.24326       -0.16484
C          1.45207        1.14040       -0.09629
H         -1.47782        2.81043       -0.12206
H         -3.25424        1.56392        0.79940
H         -4.66350        1.41033       -0.01494
H         -4.06239       -2.36204       -0.06161
H         -1.03628       -3.77348        0.66410
H         -0.22726       -2.38993        0.98035
H          5.01117        0.26724       -0.49544
H          4.27537       -1.18505       -0.34561
H          3.33761        1.96588        0.46558
