32
Coordinates from ORCA-job ./opt_b97-3c_parallel
N          3.07464       -3.69516        0.43609
C          2.65839       -2.63964        0.29605
C          2.11741       -1.30384        0.13286
C          0.72657       -1.24978        0.10380
C         -0.17257       -0.17041        0.06205
C          0.13843        1.21988        0.04009
C          1.44223        1.75023       -0.18153
N          1.61851        3.07525       -0.49262
C          2.67426        1.09429       -0.20193
C          3.00660       -0.23873       -0.01028
N          4.35720       -0.49081       -0.00816
C         -0.97043        2.10564        0.22661
N         -0.88307        3.44509        0.49239
N         -2.25978        1.72487        0.29312
C         -2.52324        0.42171        0.18019
C         -3.87968       -0.03012        0.24154
C         -3.43335       -1.38342        0.02190
N         -4.42188       -2.29245       -0.23324
C         -2.07624       -1.86929        0.00336
C         -1.54049       -0.53413        0.08056
H          0.28327       -2.23713        0.18482
H          0.80136        3.60981       -0.77059
H          2.51532        3.36916       -0.86355
H          3.53692        1.74058       -0.37217
H          4.99926        0.24050       -0.29189
H          4.67953       -1.45324       -0.02957
H         -1.71517        3.90966        0.83866
H          0.01369        3.80120        0.80538
H         -4.72575        0.45866       -0.23171
H         -5.36205       -1.95780       -0.41337
H         -4.16803       -3.21406       -0.57260
H         -1.70677       -2.66209       -0.64028
