27
Coordinates from ORCA-job ./opt_b97-3c_parallel
N         -5.72947        0.32107        0.06316
C         -4.59037        0.36656        0.07083
C         -3.16127        0.36227        0.07386
C         -2.67131        1.64274       -0.00495
N         -1.45601        2.20039       -0.01852
C         -0.28051        1.46611        0.01133
N          0.73890        2.41408        0.01081
C          2.04588        1.96731        0.04742
C          2.36642        0.57044        0.02708
C          3.61163       -0.13816       -0.04407
N          4.67013        0.16665       -0.04489
N          3.39209       -1.45838       -0.12007
C          2.06204       -1.64648       -0.09196
N          2.15835       -2.75322       -0.17531
C          1.35433       -0.38190        0.00487
C         -0.05095        0.02135        0.04314
N         -1.03238       -0.91117        0.11634
C         -2.38382       -0.84847        0.15449
N         -2.71024       -1.90871        0.23184
H         -3.21737        2.60022       -0.06535
H          2.75426        2.81285        0.05419
H          5.14949        1.06692        0.00167
H          5.41474       -0.53104       -0.08002
H          3.00316       -3.27469        0.08717
H          1.58533       -3.47129       -0.62527
H         -2.63543       -2.79015        0.74855
H         -3.68095       -1.91975       -0.10037
