31
Coordinates from ORCA-job ./opt_b97-3c_parallel
N         -0.26121       -3.36506       -1.12699
C         -0.59363       -2.34675       -0.72463
C         -1.05975       -1.05438       -0.24324
C         -2.45576       -0.98843       -0.04251
N         -3.20154       -2.14446       -0.08148
C         -3.23721        0.12847        0.23021
C         -2.88427        1.46602        0.20374
N         -3.89779        2.35940        0.42504
C         -1.63155        2.00695       -0.04142
C         -0.38615        1.39148       -0.15789
N          0.60948        2.32169       -0.25625
C          1.90300        1.95967       -0.25623
N          2.83521        2.95322       -0.32758
C          2.24327        0.62895       -0.10454
C          3.53217        0.05048        0.08951
N          2.81787       -0.81459        0.22009
C          1.94772       -1.51763        0.35620
N          2.17469       -2.76780        0.85221
C          1.27559       -0.31687       -0.04202
C         -0.10638       -0.00472       -0.13946
H         -4.21117       -2.07725       -0.11711
H         -2.76769       -2.99058       -0.43969
H         -4.29194       -0.06591        0.42164
H         -4.77276        2.01282        0.80382
H         -3.65796        3.32879        0.60241
H         -1.61435        3.09745       -0.06986
H          3.79814        2.70092       -0.51628
H          2.52544        3.88029       -0.59763
H          4.43949        0.52298        0.44665
H          1.39683       -3.41136        0.94576
H          3.11256       -3.15238        0.84562
