35
Coordinates from ORCA-job ./opt_b97-3c_parallel
N         -2.54348       -3.90363        0.18486
C         -2.30311       -2.78751        0.12052
C         -1.99116       -1.36583        0.05234
C         -2.98159       -0.53326       -0.47891
N         -4.11437       -1.08424       -1.02919
C         -3.04948        0.83693       -0.28114
C         -2.07519        1.73989        0.13697
N         -2.63445        2.95149        0.45461
C         -0.66833        1.54183        0.12893
C          0.20700        2.67616        0.03905
N         -0.19748        3.97276       -0.14770
C          1.59294        2.54285        0.02142
C          2.15413        1.28772        0.02690
N          3.46725        1.01143       -0.10172
C          3.46534       -0.10642       -0.15467
N          4.70210       -0.63380       -0.40711
C          2.25118       -0.89332       -0.05541
C          2.36241       -2.29475       -0.34307
N          2.22639       -3.40851       -0.56220
C          1.34645        0.19641        0.12449
C         -0.06340        0.25402        0.23305
C         -0.73374       -0.95424        0.53105
N         -0.07451       -1.84633        1.34740
H         -4.22956       -2.09268       -1.03638
H         -4.91356       -0.49577       -1.23625
H         -4.03166        1.27064       -0.47347
H         -3.63366        2.99025        0.62334
H         -2.05250        3.62633        0.94053
H          0.49974        4.66390       -0.40142
H         -1.14966        4.13209       -0.46023
H          2.23573        3.41636       -0.07286
H          5.47528       -0.01621       -0.62740
H          4.79497       -1.61825       -0.63296
H          0.87713       -1.65461        1.63950
H         -0.43021       -2.79228        1.44259
