29
Coordinates from ORCA-job ./opt_b97-3c_parallel
N          5.25362       -0.91344        0.43514
C          4.12670       -0.81592        0.27199
C          2.69905       -0.68696        0.08183
C          2.12619       -1.96797       -0.23689
N          1.14432       -2.45923       -0.12562
C          0.26626       -1.87422        0.19385
C         -0.24950       -0.53632        0.05236
C          0.56774        0.62537        0.00762
C         -0.10845        1.87753       -0.14998
N          0.52787        3.07584       -0.33839
C         -1.50671        1.95714       -0.19434
C         -2.26458        0.80315       -0.09587
N         -3.61006        0.68123       -0.09359
C         -3.81594       -0.42179        0.01917
N         -5.09044       -0.89380        0.12385
C         -2.68589       -1.31968        0.08658
C         -1.63113       -0.38859        0.00675
C          1.98692        0.52687        0.14856
N          2.74940        1.63552        0.42356
H          2.56829       -2.78125       -0.80187
H         -0.26292       -2.81768        0.10830
H          1.50682        3.05407       -0.60429
H         -0.02329        3.86434       -0.65911
H         -2.00539        2.91750       -0.30967
H         -5.24877       -1.85588        0.40115
H         -5.85354       -0.23577        0.23709
H         -2.68431       -2.39615        0.22325
H          2.27065        2.46374        0.76153
H          3.70580        1.49297        0.73084
