28
Coordinates from ORCA-job ./opt_b97-3c_parallel
N          4.92353        1.60160        0.17883
C          3.87875        1.14139        0.12927
C          2.56549        0.54482        0.06235
C          2.47665       -0.84936        0.04161
C          1.33277       -1.66966       -0.00615
C          1.67649       -3.07488       -0.02187
N          1.96387       -4.18192       -0.03400
C         -0.03684       -1.28121       -0.02488
C         -1.04195       -2.28393       -0.04967
C         -2.40313       -1.97767       -0.05363
C         -2.76732       -0.64121       -0.03416
C         -4.06714       -0.05974       -0.02756
N         -3.35905        0.82477       -0.00969
C         -2.52101        1.58646        0.00094
N         -2.24669        2.92145        0.02756
C         -1.83765        0.33362       -0.01691
C         -0.46368        0.06834       -0.01296
N          0.38372        1.10473        0.00073
C          1.42748        1.41789        0.00802
N          1.48176        2.77967       -0.10049
H          3.43605       -1.36619        0.06912
H         -0.79580       -3.34152       -0.06251
H         -3.15444       -2.76343       -0.06883
H         -5.03060       -0.55297        0.02177
H         -2.99173        3.58498        0.20409
H         -1.29084        3.22194        0.18220
H          0.64155        3.30410       -0.31443
H          2.37789        3.23797       -0.22802
