26
Coordinates from ORCA-job ./opt_b97-3c_parallel
N          4.06176        0.80139        0.68448
C          3.05843        0.30703        0.45299
C          1.80527       -0.34449        0.21929
C          2.18735       -1.67790        0.22991
N          1.56045       -2.85623        0.03547
C          0.18965       -2.78241       -0.02276
N         -0.09345       -3.81586       -0.28062
N         -0.66214       -1.84755        0.21457
C         -0.68196       -0.56416        0.10610
C          0.46715        0.22808        0.05590
C          0.36230        1.67171       -0.12526
C          1.37713        2.62550       -0.45420
N          2.17928        3.37773       -0.76300
C         -0.95141        2.21825       -0.29765
C         -2.12623        1.46417       -0.00457
C         -3.44868        1.75515        0.06447
C         -4.07589        0.59211        0.23538
C         -3.23741       -0.44494        0.26656
C         -1.98495        0.06465        0.11567
H          3.11704       -2.26334        0.32507
H          0.50250       -4.62737       -0.44193
H         -0.96344       -4.00038       -0.77888
H         -1.25860        3.22313       -0.58309
H         -3.90496        2.74189        0.01528
H         -5.15481        0.50074        0.34325
H         -3.50935       -1.48804        0.40566
