32
Coordinates from ORCA-job ./opt_b97-3c_parallel
N          0.65918        4.44131        0.07188
C          0.32569        3.34753        0.05486
C         -0.11542        1.96992        0.03274
C         -1.50085        1.81400        0.04468
C         -2.01624        0.53471        0.01002
C         -3.38260        0.13157       -0.00724
N         -4.59962        0.74482        0.04426
N         -2.80286       -0.83768       -0.05093
C         -2.06201       -1.68920       -0.10758
N         -2.40447       -2.99606       -0.29696
C         -1.20924       -0.54412       -0.01381
C          0.19534       -0.45557        0.01342
C          0.86190       -1.68799        0.06018
C          2.21839       -1.98906        0.08681
N          2.54129       -3.31546        0.17810
C          3.28545       -1.10767        0.02197
C          3.25520        0.27727       -0.04417
N          4.47738        0.88984       -0.10800
C          2.14802        1.12315       -0.03114
C          0.76680        0.84632        0.00936
H         -2.16866        2.67308        0.06694
H         -5.43625        0.18690        0.17315
H         -4.65388        1.73784        0.24094
H         -3.37234       -3.22714       -0.48969
H         -1.69650       -3.64532       -0.62163
H          0.23321       -2.57263        0.10186
H          3.50055       -3.56308        0.39453
H          1.81539       -3.96973        0.44924
H          4.27580       -1.56187        0.02672
H          4.51910        1.87927       -0.32691
H          5.29958        0.32461       -0.28941
H          2.44468        2.16637       -0.06823
