32
Coordinates from ORCA-job ./opt_b97-3c_parallel
N         -4.22432        2.81364       -0.07132
C         -3.51200        1.93267        0.08047
C         -2.61088        0.82109        0.00775
C         -2.58236       -0.62283       -0.01170
N         -3.89716       -1.01359       -0.05816
C         -1.47077       -1.54871        0.01025
C         -1.67201       -2.80517       -0.65247
N         -1.79162       -3.92690       -0.46098
C         -0.54732       -0.43919        0.08496
C         -1.17496        0.78809        0.04880
C         -0.42271        1.94209        0.12510
C          0.96340        1.87488        0.13064
N          1.55754        3.09265        0.34383
C          1.66218        0.63076        0.03633
C          3.07189        0.64160       -0.19895
N          3.70377        1.77601       -0.64328
C          3.99280       -0.40484       -0.13872
C          3.81293       -1.72929        0.19985
C          2.62171       -2.37189        0.44567
C          1.33948       -1.85870        0.37131
C          0.86701       -0.55137        0.15295
H         -4.60346       -0.32109       -0.28514
H         -4.10362       -1.98453       -0.26945
H         -0.91908        2.90968        0.18095
H          0.97220        3.87393        0.61754
H          2.51822        3.09226        0.67259
H          4.63320        1.68766       -1.03852
H          3.12549        2.54264       -0.97158
H          5.03025       -0.15458       -0.35935
H          4.70994       -2.34240        0.24583
H          2.69623       -3.43111        0.68151
H          0.61345       -2.63422        0.57585
