30
Coordinates from ORCA-job ./opt_b97-3c_parallel
N         -5.77938        0.15674        0.19522
C         -4.65382        0.33444        0.10370
C         -3.22006        0.52996        0.02172
C         -3.09990        1.89516       -0.16268
C         -1.90453        2.66518       -0.24718
C         -0.60450        2.24644       -0.16344
C         -0.06553        0.91797       -0.05640
C         -0.75019       -0.36080        0.01302
C         -2.20533       -0.51924        0.09861
N         -2.72222       -1.49230        0.24391
C          0.04240       -1.52918        0.02874
N         -0.19442       -2.61389        0.03676
C          1.50837       -1.47421        0.03524
C          2.48883       -2.54417        0.05774
N          3.26326       -3.14170       -0.53329
C          2.05789       -0.20052        0.02922
N          3.42995        0.00870        0.08496
C          3.74445        1.34926        0.08072
N          4.64644        1.97870        0.13061
N          2.46624        1.50445       -0.02193
C          1.30781        0.93715       -0.02278
H         -3.99180        2.52090       -0.23571
H         -2.06126        3.73304       -0.36960
H          0.13899        3.03759       -0.21838
H         -2.24062       -2.19753        0.79949
H         -3.71686       -1.61857        0.43082
H         -1.03898       -2.55885       -0.53257
H          0.13395       -3.57694       -0.02905
H          4.80404        2.97310        0.29098
H          5.54891        1.52072        0.25470
