29
Coordinates from ORCA-job ./opt_b97-3c_parallel
N          2.30476       -3.34150        0.89711
C          1.98162       -2.29643        0.56573
C          1.58244       -0.96166        0.17716
C          2.78999       -0.20651        0.40105
N          3.17692        0.78581        0.11027
C          2.49639        1.63039       -0.08100
N          3.35445        2.48996       -0.70633
C          1.09858        1.91714        0.09917
C          0.05319        0.97484        0.11170
C          0.27161       -0.43376        0.04050
C         -0.84846       -1.28487       -0.16451
C         -0.72760       -2.67856       -0.54724
N         -0.65403       -3.77419       -0.86671
C         -2.14897       -0.76741       -0.12447
N         -3.28266       -1.49577       -0.37025
C         -2.41163        0.58975        0.22918
C         -3.47228        1.56348        0.38309
C         -2.99568        2.85681        0.43149
C         -1.63169        2.80545        0.31703
C         -1.26266        1.46910        0.20027
H          3.82206       -0.54418        0.40835
H          3.05491        3.43124       -0.93411
H          4.34703        2.28375       -0.73121
H          0.95442        2.98949        0.16953
H         -3.18947       -2.41968       -0.77938
H         -4.16121       -1.00424       -0.49179
H         -4.53938        1.37176        0.46285
H         -3.59482        3.75615        0.55063
H         -0.98645        3.67804        0.34008
