29
Coordinates from ORCA-job ./opt_b97-3c_parallel
N         -5.04128        0.67515        1.17374
C         -3.99537        0.43520        0.78361
C         -2.68813        0.08979        0.30316
C         -2.37049       -1.32648        0.24201
N         -2.69521       -2.36648        0.41755
N         -1.25891       -1.86661       -0.29742
C         -0.08814       -1.24173       -0.47566
N          0.88330       -2.01818       -1.12761
C          2.19136       -1.68464       -0.99043
C          2.52577       -0.67736       -0.02140
C          3.77978       -0.26615        0.34903
N          4.88702       -0.26641        0.33651
N          3.57660        0.78900        1.24413
C          2.20343        1.01630        1.40611
C          1.56591        0.01517        0.61875
C          0.19809        0.02303        0.15978
C         -0.52653        0.99417       -0.63033
C          0.42305        1.81726       -1.33931
N          1.48179        1.95203       -1.75177
C         -1.93434        1.10474       -0.29346
N         -2.23808        2.13480       -0.57233
H         -2.74927       -3.37660        0.55128
H         -3.64509       -2.01744        0.55066
H          2.56607       -2.44255       -1.69648
H          5.56077       -1.03224        0.40754
H          5.45992        0.57962        0.29095
H          2.23217        1.91288        2.04613
H         -1.93909        3.10938       -0.62151
H         -3.23554        2.14642       -0.79182
