30
Coordinates from ORCA-job ./opt_b97-3c_parallel
N         -2.21297       -3.02446        1.03495
C         -1.98321       -1.90481        1.02446
C         -1.91119       -0.89179        0.01237
C         -3.06771       -0.02611        0.06232
N         -4.39416       -0.35944        0.13187
C         -3.10994        1.41222        0.14508
C         -1.68315        1.44456        0.05176
N         -1.06876        2.63279        0.12701
C          0.27356        2.60601        0.11996
C          1.05208        1.44206        0.02441
C          2.41814        1.70446        0.15668
C          3.48864        0.83222        0.25458
C          3.49125       -0.54286        0.10153
N          4.69234       -1.17194        0.27734
C          2.42295       -1.33732       -0.28987
C          1.07179       -1.02342       -0.45088
N          0.38575       -2.07408       -1.00237
C          0.40342        0.19545       -0.16657
C         -1.01779        0.23735       -0.08379
H         -5.05317        0.34905        0.43511
H         -4.62833       -1.32821        0.32324
H         -3.79252        2.06150       -0.39593
H          0.73247        3.58767        0.22855
H          2.70294        2.74728        0.28299
H          4.44836        1.29916        0.46875
H          5.43202       -0.66439        0.75017
H          4.69205       -2.18239        0.36519
H          2.68814       -2.37600       -0.48905
H         -0.52797       -1.89786       -1.40478
H          0.91581       -2.85595       -1.37104
