30
Coordinates from ORCA-job ./opt_b97-3c_parallel
N          5.46976        1.29991        0.37449
C          4.40824        0.89083        0.25501
C          3.07974        0.35923        0.09706
C          2.11857        1.43607        0.06996
N          1.02094        1.29916        0.05796
C          0.05848        0.34685        0.05308
C          0.38234       -1.03465        0.05931
N          1.67936       -1.41343        0.02448
C          2.71550       -1.03254       -0.01967
N          3.58588       -2.00589       -0.41907
N         -0.58796       -1.98701        0.09418
C         -1.89142       -1.63246        0.09784
N         -2.78947       -2.65675        0.18491
C         -2.26475       -0.28948        0.05652
C         -3.51234        0.32137        0.00881
N         -4.68964       -0.36420       -0.10702
C         -3.39073        1.76503        0.01385
C         -1.94876        1.91489        0.01122
N         -1.30352        3.11901       -0.03308
C         -1.30303        0.68258        0.04500
H          2.24319        2.46595        0.38372
H          4.58015       -1.80964       -0.46285
H          3.28160       -2.97200       -0.46184
H         -3.72304       -2.43305        0.51108
H         -2.42795       -3.57658        0.41135
H         -4.64153       -1.33158       -0.40828
H         -5.51793        0.15921       -0.36908
H         -4.12414        2.48908       -0.32627
H         -1.83516        3.97006        0.11220
H         -0.30124        3.14042        0.12277
