27
Coordinates from ORCA-job ./opt_b97-3c_parallel
N          4.88879        2.52089       -0.18226
C          3.99613        1.81091       -0.11389
C          2.86372        0.91835       -0.04504
C          3.17003       -0.43540       -0.03404
C          2.30036       -1.51560        0.00427
C          2.91920       -2.81869        0.02182
N          3.41291       -3.84938        0.04990
C          0.90899       -1.49628        0.01358
C          0.01273       -0.41820        0.02694
C          0.31998        0.96746        0.05471
C          1.61034        1.52484        0.01067
C         -0.76998        1.88386        0.11710
N         -0.61930        3.24085        0.20047
N         -2.07096        1.52760        0.11608
C         -2.29704        0.21201        0.05613
C         -3.54649       -0.43994        0.02897
C         -4.93760       -0.11718        0.02871
N         -5.96856        0.24121       -0.30997
C         -3.04434       -1.79399       -0.02602
N         -1.93330       -1.98310       -0.02827
C         -1.35139       -0.76195        0.01898
H          4.23205       -0.68239       -0.06131
H          0.46402       -2.48944        0.01925
H          1.67450        2.60927        0.00296
H          0.28551        3.61586        0.46022
H         -1.43895        3.79649        0.42015
H         -3.59124       -2.72820       -0.07344
