28
Coordinates from ORCA-job ./opt_b97-3c_parallel
N          4.13797        1.98322       -0.04431
C          3.35142        1.15340       -0.04347
C          2.36932        0.08941       -0.03660
C          2.97954       -1.17988       -0.02238
C          2.38159       -2.43990       -0.01474
C          0.97919       -2.71789       -0.02942
N          0.28398       -1.87743       -0.01330
C         -0.04418       -0.57871       -0.00697
C          0.97699        0.40272       -0.03105
C          0.59226        1.76136       -0.04399
C         -0.73708        2.15924       -0.02740
N         -1.07610        3.48118       -0.04632
C         -1.77665        1.18430        0.01433
C         -3.17452        0.84855       -0.00158
C         -3.80976       -0.43310        0.13496
C         -2.51759       -1.04852        0.07728
N         -2.50753       -2.41588        0.10108
C         -1.40672       -0.19965        0.02533
H          4.06861       -1.20246       -0.01614
H          2.99718       -3.33594       -0.00141
H          0.48049       -3.67951       -0.01691
H          1.32624        2.56148       -0.06982
H         -0.35332        4.17445        0.11277
H         -2.03833        3.73981        0.14225
H         -3.73183        1.77624       -0.10696
H         -4.69262       -0.76873       -0.39941
H         -1.63684       -2.89206       -0.10842
H         -3.37705       -2.91447       -0.04996
