32
Coordinates from ORCA-job ./opt_b97-3c_parallel
N         -5.02730        0.84545       -0.56045
C         -3.91207        0.67270       -0.37727
C         -2.50364        0.43610       -0.13338
C         -1.79831        1.60220        0.35116
N         -2.28283        2.47232        1.28992
N         -0.78526        1.97917        0.11616
C          0.03765        1.38107       -0.31555
N          0.37790        2.07650       -1.44424
C          0.43639        0.01226       -0.08837
C         -0.49607       -1.05897       -0.13964
C          0.04775       -2.37243       -0.00574
N         -0.69459       -3.51599        0.09125
N          1.36466       -2.64270        0.14471
C          2.20785       -1.60157        0.19054
C          3.63282       -1.77792        0.35920
C          3.99463       -0.37330        0.40428
C          2.91571        0.48338        0.24793
C          3.01706        1.91979        0.31156
N          3.11325        3.05678        0.36843
C          1.78836       -0.29772        0.10554
C         -1.89247       -0.82174       -0.32689
N         -2.72563       -1.83445       -0.73857
H         -1.79743        3.34985        1.43935
H         -3.26766        2.43797        1.52928
H          1.18538        1.77681       -1.97909
H          0.12853        3.05810       -1.50034
H         -1.68083       -3.42164        0.30842
H         -0.22506       -4.35522        0.41258
H          4.12709       -2.58316        0.89300
H          4.99605        0.02296        0.55721
H         -3.65876       -1.59103       -1.05429
H         -2.30074       -2.66774       -1.13381
