32
Coordinates from ORCA-job ./opt_b97-3c_parallel
N          6.00156        0.15083        0.59799
C          4.86830        0.18534        0.45125
C          3.43341        0.21441        0.26964
C          3.02220        1.57845        0.37697
N          1.98597        1.85448        0.19576
C          0.71708        1.50866       -0.02266
C         -0.18410        2.57291       -0.11663
C         -1.53636        2.36745       -0.33537
N         -2.38107        3.42819       -0.49612
C         -2.02356        1.02599       -0.40244
C         -3.10152        0.17483        0.02639
N         -4.30092        0.80842        0.19508
C         -3.19282       -1.22563        0.34068
C         -3.98083       -2.39791        0.55805
N         -4.98685       -2.60992        1.05710
C         -1.75900       -1.19710        0.32335
C         -1.10945       -0.04690       -0.12214
C          0.29968        0.16148       -0.12406
C          1.22923       -0.92198       -0.25733
C          0.72344       -2.16832       -0.81235
N          0.34208       -3.14764       -1.26338
C          2.64593       -0.89876       -0.07675
N          3.35433       -2.07195       -0.23725
H          3.49457        2.39472        0.91211
H          0.18773        3.59356       -0.04215
H         -1.97813        4.34311       -0.66625
H         -3.30886        3.24764       -0.86408
H         -5.05338        0.30623        0.65496
H         -4.31038        1.82176        0.23369
H         -1.24348       -2.03265        0.78844
H          4.36686       -2.02538       -0.28707
H          2.89454       -2.86364       -0.67510
