30
Coordinates from ORCA-job ./opt_b97-3c_parallel
N         -4.43908       -2.50002        0.10191
C         -3.55131       -1.78155        0.07894
C         -2.40658       -0.91629        0.04555
C         -2.59908        0.44709        0.01022
N         -3.71877        1.18004       -0.12833
C         -1.29727        0.88205        0.01543
C         -0.88201        2.18350        0.01629
N         -1.49039        3.38063        0.03128
C          0.59333        2.34752        0.00936
C          1.57600        1.29033        0.00620
N          2.84899        1.74852        0.00539
C          3.83240        0.77731       -0.00784
N          4.21029       -0.55112       -0.02544
C          3.11354       -1.38804       -0.02471
N          3.39854       -2.45191       -0.05293
N          1.85960       -1.06156        0.00749
C          1.08691       -0.01785        0.01045
C         -0.35507       -0.18717        0.01916
C         -1.05812       -1.42437        0.04362
N         -0.72169       -2.47980        0.06520
H         -3.68144        2.09702       -0.57014
H         -4.59500        0.73480       -0.39822
H         -0.96893        4.22949        0.24335
H         -2.42218        3.47639        0.43353
H          0.98138        3.36632        0.00856
H          4.71455        1.43652       -0.00333
H          4.37631       -2.73708       -0.09240
H          2.84837       -3.29534       -0.20905
H          0.02842       -3.07796        0.40361
H         -1.57240       -3.04223        0.11090
