29
Coordinates from ORCA-job ./opt_b97-3c_parallel
N         -0.41275       -4.48778        0.08298
C         -0.17669       -3.36892        0.06440
C          0.14284       -1.96041        0.03780
C          1.49253       -1.60694        0.03749
C          1.81226       -0.25823       -0.00579
C          3.09903        0.35131       -0.01514
N          4.39963       -0.05286        0.05515
N          2.37529        1.22039       -0.06234
C          1.51958        1.95910       -0.11371
N          1.63359        3.30934       -0.26741
C          0.85718        0.69629       -0.03724
C         -0.51304        0.39663       -0.00676
C         -1.42032        1.47452        0.02389
C         -2.82217        1.45806        0.09015
N         -3.45134        2.66821        0.17875
C         -3.64323        0.32943        0.08204
C         -3.20052       -1.02694       -0.02582
N         -2.15596       -1.34785        0.00145
C         -0.86789       -0.97139        0.01459
H          2.27519       -2.36158        0.06212
H          5.12876        0.63572        0.20374
H          4.61263       -1.02278        0.26016
H          2.54724        3.70991       -0.44731
H          0.82190        3.84333       -0.55736
H         -0.98371        2.46962        0.02639
H         -4.43436        2.68373        0.42741
H         -2.89552        3.48605        0.40371
H         -4.72543        0.42177        0.14186
H         -3.57350       -1.80872       -0.67680
