31
Coordinates from ORCA-job ./opt_b97-3c_parallel
N         -5.85275        1.07397       -0.48656
C         -4.74582        1.27147       -0.28214
C         -3.46569        0.66211       -0.09976
C         -2.20607        1.32788        0.06508
C         -1.02840        0.57881        0.01735
C         -1.29611       -0.80168       -0.24605
C         -2.71321       -0.55337       -0.24999
N         -3.47261       -1.68021       -0.39814
C         -0.25974       -1.67189        0.19186
N         -0.65917       -2.95001        0.48564
C          1.06389       -1.23251        0.22446
C          2.03075       -2.19252        0.72986
N          2.77629       -2.95409        1.14447
C          1.38077        0.14089       -0.00110
C          2.72760        0.49154       -0.30655
C          3.59658       -0.45435       -0.98159
N          4.28793       -1.18065       -1.53080
C          3.37103        1.72286       -0.18064
C          2.87835        2.92970        0.26926
C          1.56071        3.24970        0.50775
C          0.43803        2.45177        0.35666
C          0.30354        1.07167        0.11040
H         -2.28146        2.40278        0.18411
H         -3.01870       -2.53766       -0.69373
H         -4.46765       -1.57942       -0.56929
H         -1.64784       -3.12774        0.62607
H          0.00657       -3.57970        0.92188
H          4.43072        1.75243       -0.43586
H          3.59846        3.73829        0.37436
H          1.37310        4.28367        0.78975
H         -0.45249        3.03567        0.52818
