30
Coordinates from ORCA-job ./opt_b97-3c_parallel
N         -5.03568        1.70602        0.29115
C         -4.23292        0.97572       -0.06962
C         -2.86033        0.57873       -0.12610
C         -2.77601       -0.85465       -0.13724
C         -1.36763       -1.12909       -0.17957
C         -0.61558       -2.35665       -0.16154
N         -1.29166       -3.53602       -0.29746
C          0.75643       -2.36924        0.03818
C          1.48588       -1.18819        0.09985
N          2.81234       -1.28823        0.25999
C          3.74277       -0.72172        0.35675
C          3.90141        0.66410        0.03850
C          2.86340        1.56351       -0.20732
N          3.22322        2.85822       -0.45789
C          1.49017        1.27479       -0.21249
C          0.82750        0.04236       -0.05027
C         -0.62760        0.10236       -0.07722
C         -1.57194        1.17136        0.10902
N         -1.53410        2.45004        0.58905
H         -3.49839       -1.64989       -0.30603
H         -0.80239       -4.41067       -0.14102
H         -2.30527       -3.53478       -0.28517
H          1.27816       -3.32235        0.10614
H          4.44919       -1.38993        0.83395
H          4.93895        0.99068        0.03216
H          2.52584        3.48950       -0.83705
H          4.19858        3.06314       -0.64415
H          0.85384        2.13479       -0.39937
H         -0.67629        2.78276        1.01577
H         -2.40571        2.89509        0.85647
