26
Coordinates from ORCA-job ./opt_b97-3c_parallel
N          2.43724        2.92611        0.73910
C          2.31018        1.83112        0.43465
C          2.17622        0.44357        0.06703
C          3.27551       -0.40741        0.08465
C          2.82580       -1.71032       -0.02598
C          1.44566       -1.65353       -0.09052
C          0.57163       -2.72525       -0.06854
C         -0.78713       -2.44547       -0.00157
C         -1.25467       -1.12518       -0.02238
C         -2.68751       -0.96677        0.00823
N         -3.38412       -0.20958        0.40820
C         -3.16471        0.86550        0.53044
C         -2.18246        1.68555       -0.12813
C         -0.86933        1.28114       -0.39226
N         -0.13004        2.19695       -1.08537
C         -0.36761       -0.02174       -0.14076
C          1.01494       -0.33361       -0.09272
H          4.30894       -0.10737        0.24236
H          3.43658       -2.60882        0.01434
H          0.93465       -3.75030       -0.04992
H         -1.49399       -3.27030        0.05366
H         -3.45381       -1.73294        0.04687
H         -4.07636        1.17654        1.02706
H         -2.53134        2.68012       -0.39728
H         -0.46290        3.15159       -1.16362
H          0.84440        2.00331       -1.28720
