31
Coordinates from ORCA-job ./opt_b97-3c_parallel
N         -5.22772        2.01213        0.44114
C         -4.36607        1.28145        0.26629
C         -3.26533        0.35746        0.06782
C         -2.00809        0.96702        0.04432
C         -0.69931        0.44789       -0.06147
C          0.35948        1.40387       -0.10720
N          0.09990        2.75271       -0.21484
C          1.71359        1.02206       -0.07809
C          2.76638        2.01694       -0.12296
N          3.58277        2.81611       -0.16659
C          2.00612       -0.33666       -0.01174
C          3.23009       -1.00766        0.07020
C          4.56355       -0.46539        0.14766
N          5.62729       -0.05363        0.21677
C          2.96304       -2.36506        0.10397
C          1.59118       -2.53709        0.03819
C          0.99225       -1.27596       -0.03248
C         -0.37169       -0.93171       -0.08770
C         -1.27024       -2.00364       -0.18105
C         -2.65441       -2.03347       -0.22171
C         -3.56696       -0.99904       -0.09448
N         -4.88023       -1.39818       -0.12838
H         -2.09303        2.04330        0.15917
H          0.87561        3.37322       -0.42401
H         -0.82170        3.04378       -0.52052
H          3.70121       -3.15936        0.18344
H          1.10142       -3.50549        0.06553
H         -0.85574       -2.99996       -0.26384
H         -3.07664       -3.03028       -0.33927
H         -5.60565       -0.73171        0.11599
H         -5.10099       -2.38724       -0.09915
