28
Coordinates from ORCA-job ./opt_b97-3c_parallel
N         -5.49068       -1.09827        0.61829
C         -4.44541       -0.67389        0.43595
C         -3.13020       -0.13196        0.22457
C         -2.82840        1.21261        0.07944
C         -1.45106        1.29482       -0.04012
C         -0.64875        2.41584       -0.16604
N         -1.16166        3.67725       -0.23738
N          0.69140        2.29228       -0.19530
C          1.27158        1.06154       -0.13194
C          2.67123        1.09179       -0.12052
C          3.53361       -0.04887        0.03876
N          4.79952        0.05220        0.54270
N          3.47808       -1.14303       -0.08185
C          2.52095       -1.66801       -0.24765
C          1.10719       -1.41765       -0.13225
C          0.45869       -2.69135       -0.32775
N         -0.03715       -3.70690       -0.50144
C          0.50404       -0.14129       -0.07719
C         -0.89376        0.03141        0.00767
C         -1.95047       -0.86527        0.18273
H         -3.53277        2.04022        0.09029
H         -2.14996        3.78723       -0.43279
H         -0.53853        4.43044       -0.50720
H          3.20254        2.04072       -0.16802
H          5.21255        0.96495        0.69871
H          5.40828       -0.75869        0.55377
H          3.04001       -2.60096       -0.44286
H         -1.90079       -1.94020        0.31262
