31
Coordinates from ORCA-job ./opt_b97-3c_parallel
N          3.94679        2.52983        0.01926
C          2.99785        1.89284        0.05139
C          1.80414        1.06789        0.08818
C          1.85532       -0.33520        0.01817
N          3.11653       -0.84634       -0.19232
C          0.66777       -1.15057        0.04555
C          0.80506       -2.57337        0.01701
N          1.96934       -3.20186        0.37973
C         -0.12667       -3.52732       -0.38643
C         -1.48381       -3.40586       -0.58285
C         -2.26668       -2.34920       -0.18266
C         -1.87182       -1.08647        0.23824
N         -2.92176       -0.40795        0.79615
C         -0.59539       -0.47726        0.12598
C         -0.56224        0.93785        0.12755
C         -1.59116        1.91901        0.01182
C         -2.88121        2.49490       -0.22916
N         -3.92218        2.44842       -0.69818
C         -0.77716        3.11256        0.00048
N          0.33621        3.01926        0.06617
C          0.57088        1.68960        0.11082
H          3.19509       -1.79762       -0.53619
H          3.87077       -0.20317       -0.40916
H          1.94491       -4.20384        0.53359
H          2.65166       -2.66546        0.90571
H          0.24425       -4.54058       -0.53924
H         -2.00872       -4.29925       -0.91345
H         -3.33630       -2.55601       -0.18607
H         -2.72084        0.41290        1.35688
H         -3.76460       -0.92623        1.01813
H         -1.04063        4.15984       -0.11351
