30
Coordinates from ORCA-job ./opt_b97-3c_parallel
N         -1.25858       -4.32133       -0.65635
C         -1.62649       -3.47021        0.01542
C         -1.45096       -2.04840        0.02804
C         -2.62537       -1.33662       -0.14663
C         -2.72475        0.08943       -0.08492
C         -4.02486        0.67888       -0.22585
N         -5.07261        1.13016       -0.29050
C         -1.67290        0.89881        0.21371
N         -1.86438        1.68530        1.29425
C         -0.35503        0.85608       -0.13342
C          0.21263        2.06565       -0.44386
N         -0.10284        3.31951       -0.80893
C          1.67316        2.30867       -0.38520
C          2.41528        1.10720       -0.11859
N          3.73723        1.00674       -0.04602
C          3.89228       -0.35780        0.15649
N          4.82017       -0.93956        0.29560
N          2.78583       -1.05332        0.17295
C          1.83817       -0.18304        0.01551
C          0.45392       -0.33445        0.00833
C         -0.07185       -1.61332        0.15687
H         -3.56405       -1.86775       -0.29504
H         -1.36514        2.57357        1.33954
H         -2.82094        1.89282        1.58197
H          0.60331        3.97370       -1.14309
H         -0.97418        3.51304       -1.30198
H          2.39455        3.11241       -0.53541
H          5.73988       -0.50274        0.34859
H          4.96377       -1.93072        0.48826
H          0.63790       -2.42773        0.27769
