28
Coordinates from ORCA-job ./opt_b97-3c_parallel
N          5.69717       -0.88666       -0.08462
C          4.60109       -0.56166       -0.07749
C          3.22557       -0.13522       -0.06152
C          2.90674        1.22296       -0.08847
C          1.62952        1.79743       -0.06891
C          0.36735        1.17592       -0.01499
C         -0.72927        2.04779        0.01110
C         -2.03629        1.57956        0.07129
N         -3.08684        2.44952        0.12585
C         -2.29801        0.17067        0.08600
C         -3.14252       -0.99669        0.04660
N         -4.43138       -0.62612       -0.21474
C         -2.86363       -2.39675        0.23164
C         -1.47359       -2.06214        0.15774
C         -1.16470       -0.71044        0.08724
C          0.15049       -0.21664        0.02692
N          1.17907       -1.07956        0.01684
C          2.26677       -1.19856       -0.01522
H          3.74189        1.91988       -0.12586
H          1.63253        2.88513       -0.09496
H         -0.56499        3.12332       -0.00753
H         -3.99705        2.08133        0.38063
H         -2.89754        3.42414        0.33005
H         -5.11094       -1.34425       -0.43986
H         -4.60415        0.31642       -0.54747
H         -3.33375       -3.22075       -0.29486
H         -0.70487       -2.83106        0.16633
H          2.43335       -2.25468        0.16006
