28
Coordinates from ORCA-job ./opt_b97-3c_parallel
N          3.71539       -2.68962       -0.33684
C          3.16347       -1.69592       -0.21407
C          2.48606       -0.42082       -0.05983
C          3.38309        0.64971       -0.03855
C          3.14861        2.00586        0.11521
C          1.93616        2.64754        0.28130
C          0.67008        2.08824        0.29766
C          0.27243        0.75704        0.16728
C          1.07396       -0.40325        0.03278
N          0.46357       -1.62533       -0.01423
C         -0.87342       -1.77841        0.04635
C         -1.73794       -0.69832        0.13367
C         -3.12096       -0.80432        0.14633
N         -3.77324       -2.00620        0.10216
C         -3.84134        0.43209        0.16820
C         -2.53804        1.03007        0.01349
N         -2.64277        2.32152       -0.42175
C         -1.16709        0.61035        0.18323
H          4.43752        0.39825       -0.14834
H          4.02842        2.64557        0.11011
H          1.98120        3.72793        0.39981
H         -0.12735        2.81545        0.43179
H         -1.23360       -2.80375       -0.00312
H         -4.77425       -2.02277        0.26459
H         -3.24749       -2.85486        0.27950
H         -4.71834        0.64295       -0.43639
H         -3.54228        2.65770       -0.74880
H         -1.80806        2.79191       -0.75478
