29
Coordinates from ORCA-job ./opt_b97-3c_parallel
N          1.25945        3.08895       -1.28210
C          1.41205        2.04115       -0.84866
C          1.64098        0.71328       -0.31932
C          3.00149        0.46593       -0.12801
C          3.64377       -0.68444        0.29652
C          3.09416       -1.93620        0.49034
C          1.77511       -2.32311        0.32569
C          0.63461       -1.55322        0.07255
C         -0.51819       -2.32744       -0.08136
C         -1.74365       -1.76530       -0.38921
N         -2.82785       -2.56899       -0.60149
C         -1.94335       -0.34811       -0.33520
C         -3.15382        0.39182       -0.12105
C         -2.71586        1.64037        0.42676
C         -1.28238        1.70877        0.47572
N         -0.94513        2.87445        1.10375
C         -0.78812        0.46631       -0.06414
C          0.54243       -0.15476       -0.10287
H          3.67667        1.30293       -0.30578
H          4.71941       -0.60737        0.43883
H          3.79305       -2.72536        0.75965
H          1.62481       -3.39359        0.45028
H         -0.45800       -3.41275       -0.02445
H         -2.74424       -3.56217       -0.41560
H         -3.75246       -2.15349       -0.57685
H         -4.17681        0.07232        0.06047
H         -3.39154        2.42375        0.75862
H          0.02028        3.17943        1.03614
H         -1.65223        3.59696        1.17751
