30
Coordinates from ORCA-job ./opt_b97-3c_parallel
N         -4.40844        2.72010       -0.56507
C         -3.61279        1.91988       -0.38600
C         -2.59246        0.93254       -0.19967
C         -1.28460        1.34664       -0.18842
C         -0.63714        0.14751       -0.00447
C         -1.56331       -0.93634        0.03493
C         -1.16810       -2.29892        0.18244
N         -1.73733       -3.21233        0.43051
C          0.18026       -2.55459        0.04181
C          1.16679       -1.51595       -0.13636
N          2.41253       -2.02611       -0.44549
C          3.46263       -1.17669       -0.50879
N          4.00312        0.05615       -0.34287
C          3.12337        1.02649        0.08127
N          4.04585        1.63899        0.15534
C          1.67246        0.96431        0.21721
C          1.23226        2.24159        0.69868
N          0.94452        3.27628        1.08967
C          0.81575       -0.15671        0.03784
C         -2.84219       -0.47445       -0.07968
N         -3.81817       -0.99341       -0.09048
H         -0.94681        2.04575       -0.95122
H         -2.58916       -2.81184        0.82181
H         -1.64773       -4.14675        0.82626
H          0.57719       -3.56793        0.13985
H          4.11938       -2.00108       -0.82960
H          5.04942        1.75612        0.29815
H          3.61201        2.46556        0.56967
H         -3.99068       -1.93816       -0.43081
H         -4.70608       -0.49545       -0.14536
