34
Coordinates from ORCA-job ./opt_b97-3c_parallel
N         -4.95573       -1.80136        1.12842
C         -3.99855       -1.29758        0.75693
C         -2.77240       -0.66691        0.30165
C         -1.78563       -1.58437       -0.04539
C         -0.41369       -1.40564       -0.26460
C          0.35755       -2.58982       -0.39088
N         -0.17838       -3.83985       -0.53959
N          1.70029       -2.62261       -0.37534
C          2.33219       -1.45497       -0.21236
C          3.75315       -1.46177       -0.05027
C          3.68064       -0.04752        0.21964
N          4.97591        0.28179        0.51608
C          2.55646        0.85942        0.16166
C          2.47059        1.84682        1.19667
N          2.56867        2.98403        1.24968
C          1.68172       -0.23753       -0.17686
C          0.26801       -0.16618       -0.30912
C         -0.34107        1.08258       -0.58480
N          0.44530        1.99567       -1.25812
C         -1.67103        1.49388       -0.33217
C         -1.98790        2.89232       -0.61689
N         -2.23965        3.98204       -0.85477
C         -2.72139        0.73241        0.21843
N         -3.85831        1.40872        0.62122
H         -2.13456       -2.61259        0.00645
H          0.44778       -4.58951       -0.81378
H         -1.14708       -3.91609       -0.82820
H          4.31747       -2.19034        0.52511
H          5.63181       -0.46376        0.72052
H          5.15602        1.19331        0.92405
H          1.42197        1.79213       -1.43754
H          0.11306        2.94556       -1.39072
H         -4.69220        0.88361        0.86183
H         -3.95170        2.39670        0.40851
