32
Coordinates from ORCA-job ./opt_b97-3c_parallel
N          5.49789        2.44656       -0.61257
C          4.47315        1.95536       -0.48875
C          3.17341        1.35135       -0.32466
C          2.03623        2.15033       -0.45134
C          0.69440        1.75580       -0.35757
C          0.13031        0.47493       -0.18233
C          0.87967       -0.71298       -0.10104
N          2.22260       -0.68414       -0.05255
C          3.11244       -0.05131       -0.03139
N          3.99498       -0.71898        0.76917
C          0.22274       -1.95068       -0.09912
C          0.97930       -3.18749       -0.04970
N          1.56455       -4.16892       -0.00239
C         -1.16886       -2.00178       -0.18378
N         -1.86545       -3.18050       -0.25283
C         -1.99337       -0.82297       -0.15673
C         -3.41074       -0.62232       -0.04243
C         -3.58579        0.80189       -0.09652
C         -4.98950        1.07563       -0.07263
N         -5.80502        1.67138        0.46400
C         -2.32336        1.46171        0.09970
N         -2.42257        2.75036        0.54277
C         -1.32354        0.44842       -0.10990
H          2.20438        3.20852       -0.64144
H         -0.00233        2.58051       -0.46952
H          3.87909       -1.71655        0.90893
H          4.91739       -0.32663        0.92398
H         -1.36925       -4.05535       -0.11606
H         -2.87281       -3.17148       -0.14039
H         -4.09744       -1.46394       -0.10135
H         -3.33746        3.10344        0.80430
H         -1.60652        3.18776        0.95623
