28
Coordinates from ORCA-job ./opt_b97-3c_parallel
N         -0.73216       -3.85555        0.08727
C         -1.02251       -2.75156        0.06636
C         -1.33275       -1.35657        0.05124
C         -2.71945       -1.27708        0.04750
N         -3.62425       -0.27621        0.01349
C         -3.10291        0.99820        0.04174
N         -4.02522        1.59797       -0.04589
N         -1.98940        1.64615        0.12189
C         -0.82923        1.07962        0.09267
C          0.17671        2.13679        0.14636
C          1.54952        1.87110        0.08200
N          2.24630        2.72372        0.18038
C          1.95743        0.49937       -0.04233
C          3.22980        0.01646       -0.20309
N          4.32006        0.16299       -0.30890
N          3.09733       -1.37073       -0.27848
C          1.74473       -1.71574       -0.17325
C          1.03444       -0.48407       -0.02884
C         -0.39573       -0.24043        0.04729
H         -3.57126       -1.97650        0.04383
H         -4.99518        1.29174        0.03993
H         -4.07259        2.57418       -0.33818
H         -0.15704        3.17053        0.26969
H          2.00164        3.61953       -0.24428
H          2.77265        2.95655        1.02468
H          5.20824       -0.33782       -0.36553
H          4.53898        1.13967       -0.50939
H          1.98814       -2.78525       -0.27487
