32
Coordinates from ORCA-job ./opt_b97-3c_parallel
N         -5.90849        0.27157       -1.06265
C         -5.01210       -0.10510       -0.46050
C         -3.61857        0.02542       -0.16645
C         -3.07131       -1.29764       -0.06049
C         -1.66868       -1.10203        0.17781
C         -0.55422       -1.98859        0.35492
N         -0.93192       -3.28713        0.58149
C          0.77924       -1.58031        0.25405
C          1.78654       -2.59559        0.49643
N          2.56684       -3.40289        0.71243
C          1.08904       -0.20483        0.13259
C          2.41128        0.25562       -0.12151
C          3.43983       -0.52888       -0.77868
N          4.24533       -1.13410       -1.31951
C          2.79123        1.65786       -0.09979
N          3.99330        2.19491       -0.49029
N          2.42630        2.60582        0.32938
C          1.44706        2.72445        0.82268
C          0.19037        2.07447        0.57585
C          0.01711        0.71022        0.30331
C         -1.37084        0.30003        0.17939
C         -2.58138        1.01971       -0.11366
N         -2.98278        2.28953       -0.41837
H         -3.44542       -2.29764       -0.26928
H         -1.89924       -3.55323        0.43759
H         -0.22387       -4.01408        0.55624
H          4.73777        1.58316       -0.80751
H          4.23130        3.14856       -0.24093
H          1.62948        3.68942        1.28180
H         -0.64536        2.75084        0.73043
H         -2.27731        2.98613       -0.63107
H         -3.91812        2.42818       -0.78684
