35
Coordinates from ORCA-job ./opt_b97-3c_parallel
N         -4.86454       -1.31304       -0.95502
C         -3.83032       -0.92807       -0.65466
C         -2.50673       -0.43023       -0.28876
C         -2.45276        0.86516        0.24725
N         -3.65360        1.42417        0.64943
C         -1.32101        1.70089        0.23197
C         -1.55075        3.09104        0.62357
N         -1.73236        4.17381        0.94297
C         -0.01650        1.37206       -0.20383
N          0.74561        2.45749       -0.58078
C          0.60306        0.09377       -0.11293
C         -0.09588       -1.14277        0.03005
C          0.63125       -2.30740        0.43424
N          0.03220       -3.45609        0.88742
C          2.01650       -2.32189        0.49147
C          2.66616       -1.16822        0.14001
C          4.04719       -0.88857        0.10097
C          4.03718        0.51558       -0.21834
N          5.20126        1.19809       -0.40994
N          2.99792        0.93343       -0.29997
C          2.02652        0.00118       -0.12185
C         -1.42995       -1.32890       -0.40631
N         -1.71062       -2.52751       -1.03256
H         -3.69840        2.42697        0.79896
H         -4.51647        0.94312        0.41740
H          1.74704        2.34727       -0.68666
H          0.39119        3.39144       -0.40304
H          0.59952       -4.14642        1.36696
H         -0.96275       -3.43574        1.08638
H          2.57165       -3.20853        0.78986
H          4.90425       -1.54291        0.22204
H          5.16805        2.13829       -0.78826
H          6.07606        0.69046       -0.47764
H         -2.67858       -2.78040       -1.20136
H         -1.02495       -3.27368       -0.97712
