31
Coordinates from ORCA-job ./opt_b97-3c_parallel
N          5.00379        2.20898       -0.22351
C          3.98928        1.68180       -0.19271
C          2.69354        1.02917       -0.14585
C          1.64476        1.92639       -0.23786
C          0.28694        1.69937       -0.17797
C         -0.43143        0.50683       -0.09773
C          0.08110       -0.81952       -0.09262
C         -0.88632       -1.86722       -0.16501
C         -2.26230       -1.64931       -0.17737
N         -3.13696       -2.69673       -0.25870
C         -2.70611       -0.34432       -0.08328
C         -4.04270        0.15166       -0.02570
N         -3.40331        1.08157        0.03057
C         -2.60365        1.87326        0.11112
N         -2.75182        3.19288        0.42285
C         -1.82962        0.67931       -0.04331
C          1.45764       -1.19148        0.00308
C          1.74292       -2.61349        0.16852
N          1.97751       -3.72331        0.31464
C          2.61777       -0.36895        0.00254
N          3.84506       -0.99562        0.13684
H          1.91306        2.97762       -0.34608
H         -0.27912        2.62201       -0.24586
H         -0.60683       -2.91406       -0.22705
H         -2.78491       -3.64517       -0.18088
H         -4.12590       -2.53158       -0.11122
H         -4.97354       -0.40063       -0.05107
H         -3.66953        3.53518        0.68404
H         -1.94955        3.69964        0.78014
H          3.87434       -1.97241        0.40898
H          4.67385       -0.43040        0.28728
