28
Coordinates from ORCA-job ./opt_b97-3c_parallel
N          2.85103        3.84275        0.07168
C          2.51996        2.74923        0.04510
C          2.11199        1.36448        0.02412
C          3.13606        0.43376        0.01669
C          3.04079       -0.94513       -0.02246
C          1.91787       -1.77047       -0.02131
N          2.27189       -3.09423       -0.10164
C          0.54802       -1.41189        0.03751
C         -0.37929       -2.48733        0.11210
C         -1.75500       -2.29822        0.14325
C         -2.20500       -1.00082        0.08661
C         -3.50914       -0.47200        0.08066
C         -3.21476        0.93833        0.00260
N         -4.21814        1.85922       -0.05678
N         -2.12086        1.20541       -0.01564
C         -1.37668        0.07176        0.02799
C          0.02578       -0.08464        0.02241
C          0.74383        1.12218        0.00580
H          4.15253        0.82510        0.02731
H          4.00717       -1.44691       -0.05300
H          1.56066       -3.76446       -0.36954
H          3.23172       -3.31744       -0.34016
H         -0.05786       -3.52299        0.16093
H         -2.44334       -3.13731        0.20427
H         -4.47712       -0.96179        0.10358
H         -3.99716        2.84822       -0.02896
H         -5.18214        1.57408        0.07191
H          0.15341        2.03497       -0.00220
