31
Coordinates from ORCA-job ./opt_b97-3c_parallel
N         -4.96406       -2.27161        0.63551
C         -3.87163       -2.10933        0.33849
C         -2.86886       -1.12411        0.08285
C         -1.45697       -1.46893        0.08096
C         -0.65178       -0.34621        0.00336
C         -1.45301        0.75184       -0.05572
C         -0.87492        2.01615       -0.14970
N         -1.59983        3.16629       -0.26684
N          0.46972        2.15638       -0.14499
C          1.28305        1.06447       -0.05794
C          2.65762        1.35383        0.00876
C          3.75395        0.49083        0.16318
N          4.98570        1.07000        0.29627
C          3.71055       -0.90273        0.20554
C          2.52514       -1.68486        0.03192
N          2.54322       -2.98202       -0.38911
N          1.48297       -1.35717        0.03556
C          0.73997       -0.24117       -0.00462
C         -2.77253        0.32486        0.00345
N         -3.83780        1.18130        0.04688
H         -1.01755       -2.46145        0.14413
H         -2.56937        3.08713       -0.55188
H         -1.10375        4.01063       -0.52958
H          2.90749        2.41352       -0.02657
H          5.03391        2.06736        0.47424
H          5.75839        0.49588        0.61525
H          4.62203       -1.47959        0.34876
H          3.42121       -3.40918       -0.66226
H          1.68398       -3.41872       -0.70261
H         -3.65567        2.14867        0.28991
H         -4.73922        0.79828        0.31217
