30
Coordinates from ORCA-job ./opt_b97-3c_parallel
N         -5.21893       -0.42547        0.08420
C         -4.10393       -0.67490        0.06726
C         -2.70247       -1.01279        0.05096
C         -2.22893       -2.29981        0.21149
C         -0.84583       -2.25368        0.19251
C         -0.43141       -0.92967       -0.00547
C         -1.59583       -0.16877       -0.05330
C         -1.53800        1.21573       -0.15126
C         -2.69902        2.06917       -0.21756
N         -3.60595        2.76226       -0.27335
C         -0.28171        1.80366       -0.11952
C          0.91274        1.06163       -0.05025
C          2.03360        1.89478        0.04671
C          3.37550        1.59165        0.19638
C          3.98299        0.35072        0.16990
N          5.34165        0.33502        0.32412
C          3.36748       -0.86835       -0.06914
C          2.01523       -1.19339       -0.20235
N          1.87373       -2.50162       -0.57808
C          0.87221       -0.35928       -0.07629
H         -2.83495       -3.18991        0.36339
H         -0.23052       -3.12892        0.36992
H         -0.24338        2.89186       -0.14067
H          1.84726        2.96685        0.06121
H          4.03168        2.45040        0.32755
H          5.80171       -0.55532        0.47932
H          5.80040        1.17136        0.66846
H          4.06118       -1.70506       -0.15863
H          0.98916       -2.78302       -0.98577
H          2.70217       -3.00333       -0.87831
