29
Coordinates from ORCA-job ./opt_b97-3c_parallel
N         -2.90218       -2.75160        0.18023
C         -2.42089       -1.71983        0.28808
C         -1.94232       -0.37884        0.15031
C         -2.76886        0.81194        0.15779
N         -4.12831        0.75777        0.27855
N         -2.34896        1.85293        0.08842
C         -1.02103        1.62099        0.03224
C         -0.00838        2.56548       -0.05951
C          1.32594        2.14557       -0.08325
N          2.28146        3.12392       -0.15430
C          1.65979        0.77049       -0.01725
C          3.01919        0.39403        0.04615
C          3.50322       -0.89469        0.28676
C          2.67084       -2.03451        0.56629
N          1.62950       -2.28115        0.28683
C          0.84983       -1.59580       -0.08897
N          0.42139       -2.34680       -1.15051
C          0.60868       -0.17589        0.00216
C         -0.70239        0.29731        0.05774
H         -4.65107        1.61267        0.43152
H         -4.57953       -0.12472        0.49374
H         -0.25741        3.62402       -0.09672
H          3.23267        2.85659       -0.38072
H          1.99012        4.06816       -0.38230
H          3.78473        1.15883       -0.04459
H          4.57362       -1.07346        0.35174
H          2.97008       -3.05877        0.75640
H         -0.32786       -2.00087       -1.73884
H          0.60893       -3.34332       -1.16320
