27
Coordinates from ORCA-job ./opt_b97-3c_parallel
N         -5.56056        0.24721       -0.31200
C         -4.42292        0.32309       -0.23070
C         -2.98646        0.40453       -0.12496
C         -2.43856        1.67261       -0.17810
C         -1.11013        2.03787       -0.05681
C          0.05261        1.26893        0.03043
N          1.14809        2.07955        0.08497
C          2.39137        1.57662        0.09897
N          3.42881        2.46128        0.14366
C          2.57767        0.21545       -0.00659
C          3.76448       -0.48626       -0.13175
C          3.42221       -1.81461       -0.30570
C          2.03736       -1.91391       -0.27381
C          1.49380       -0.64170       -0.05143
C          0.15811       -0.15553        0.04442
C         -0.93853       -1.05011        0.18238
C         -0.73410       -2.42834        0.57055
N         -0.61342       -3.51817        0.89661
C         -2.30946       -0.78539        0.09504
H         -3.13548        2.50022       -0.30116
H         -0.96343        3.11768       -0.07936
H          4.36113        2.10693        0.32364
H          3.22847        3.42524        0.38523
H          4.76907       -0.07100       -0.14207
H          4.11569       -2.63401       -0.47821
H          1.51324       -2.84268       -0.46331
H         -2.96670       -1.65051        0.20602
