29
Coordinates from ORCA-job ./opt_b97-3c_parallel
N         -1.93009       -3.60454       -0.63402
C         -1.20425       -2.75612       -0.38852
C         -0.25305       -1.70467       -0.10010
C          1.05811       -2.18737       -0.06926
C          2.09868       -1.28932        0.01062
C          3.45533       -1.54197        0.04499
C          4.21236       -0.30769        0.08679
C          3.12837        0.65680        0.05347
N          3.34119        2.00579        0.09065
C          1.87456        0.04865        0.00941
C          0.57503        0.57615       -0.03847
N          0.43384        1.90087       -0.11172
C         -0.11570        2.83548       -0.18323
C         -1.53465        2.70376       -0.27248
C         -2.31885        1.56515       -0.06397
N         -3.66146        1.86392       -0.04192
C         -1.88374        0.21549        0.10450
C         -2.94637       -0.66448        0.56416
N         -3.79612       -1.32671        0.94822
C         -0.54487       -0.29912       -0.01496
H          1.26852       -3.25380       -0.13709
H          3.82547       -2.56425        0.02949
H          5.17986       -0.16376        0.55687
H          4.27957        2.36158       -0.05285
H          2.55562        2.62471       -0.07929
H          0.51514        3.62564       -0.57204
H         -1.98306        3.68477       -0.41774
H         -4.31447        1.15353        0.27285
H         -3.94697        2.83514        0.02087
