31
Coordinates from ORCA-job ./opt_b97-3c_parallel
N         -2.53101        3.45820        0.27154
C         -1.80573        2.57762        0.20483
C         -0.87777        1.47774        0.10963
C          0.48199        1.74704        0.16532
C          1.42512        0.72357        0.06381
C          2.81205        1.12639        0.07815
N          3.30378        2.17262       -0.65348
N          3.76089        0.72550        0.47268
C          3.94866       -0.34699        0.65999
C          3.35255       -1.52560        0.08991
C          1.99153       -1.66882       -0.20668
N          1.66401       -2.91358       -0.67143
C          1.02633       -0.62801       -0.08144
C         -0.37172       -0.87722       -0.10684
C         -0.98340       -2.17837       -0.10629
C         -2.29809       -1.59597       -0.05446
N         -3.15781       -2.65076        0.08863
C         -2.69305       -0.20925       -0.06609
C         -4.02391        0.22767       -0.35988
N         -4.97950        0.48478        0.21313
C         -1.30010        0.15549       -0.02641
H          0.81518        2.77723        0.27769
H          2.66496        2.81980       -1.10086
H          4.26673        2.46372       -0.52622
H          4.86918       -0.26224        1.22552
H          4.05023       -2.35122       -0.03452
H          2.41710       -3.54247       -0.92822
H          0.77760       -3.02728       -1.15045
H         -0.66583       -3.02244        0.50019
H         -2.78189       -3.56696        0.30599
H         -4.12009       -2.45629        0.34710
