32
Coordinates from ORCA-job ./opt_b97-3c_parallel
N         -3.82215       -2.88571       -0.14848
C         -2.88961       -2.22768       -0.09269
C         -1.71412       -1.38568       -0.03741
C         -0.40853       -1.88467       -0.02531
N         -0.27877       -3.25260       -0.11942
C          0.72477       -1.01506        0.04419
C          1.95930       -1.67856        0.20791
C          3.26105       -1.21518        0.25260
C          3.72948        0.06859        0.07175
N          5.08788        0.22863        0.08014
C          2.96468        1.20474       -0.12111
C          1.57856        1.37552       -0.13144
N          1.29006        2.70179       -0.33224
C          0.53823        0.40551       -0.01963
C         -0.81454        0.84982        0.01649
N         -1.35060        2.09627        0.07612
C         -2.47240        2.09886        0.10605
N         -3.28458        3.19042        0.19087
C         -3.02653        0.77101        0.06186
C         -1.85636       -0.01918        0.01905
H         -1.10626       -3.79408       -0.34811
H          0.61578       -3.62740       -0.41342
H          1.95161       -2.75250        0.35641
H          4.01542       -1.98266        0.41723
H          5.67339       -0.59829        0.03986
H          5.47510        1.10000       -0.26476
H          3.55423        2.11220       -0.25858
H          2.03586        3.38438       -0.25885
H          0.33634        3.02472       -0.21712
H         -2.87709        4.10302        0.36203
H         -4.27539        3.06955        0.36730
H         -4.07310        0.48388        0.09323
