26
Coordinates from ORCA-job ./opt_b97-3c_parallel
N         -5.22739       -1.71583        0.00345
C         -4.20633       -1.20189        0.00303
C         -2.90822       -0.57079        0.00254
C         -1.77865       -1.39645        0.00235
C         -0.43475       -0.98591        0.00170
C          0.52779       -2.01156        0.00124
C          1.89180       -1.72432       -0.00061
C          2.26258       -0.38947        0.00022
C          3.53850        0.20961       -0.00040
C          4.88031       -0.28137       -0.00133
N          5.62251       -1.15030       -0.00317
C          3.08492        1.58361        0.00010
N          1.98503        1.83629        0.00073
C          1.36562        0.63542        0.00097
C         -0.00707        0.36240        0.00150
C         -0.94000        1.46136        0.00167
N         -2.03033        1.64205        0.00212
C         -2.82092        0.87196        0.00222
N         -3.90631        1.70667        0.00246
H         -1.96730       -2.46859        0.00238
H          0.21640       -3.05398        0.00119
H          2.63554       -2.51729       -0.00021
H          3.66688        2.49749       -0.00023
H         -0.73100        2.52546        0.00184
H         -3.78741        2.71335        0.00276
H         -4.84620        1.32460        0.00294
