31
Coordinates from ORCA-job ./opt_b97-3c_parallel
N         -5.57194       -1.00620        0.40215
C         -4.53932       -0.59803        0.12687
C         -3.14307       -0.30402        0.01317
C         -2.78194        1.08644       -0.06299
N         -3.47753        2.26367       -0.04342
C         -1.35068        1.03464       -0.17415
C         -0.36135        2.07522       -0.19962
C          1.00106        1.82937       -0.11438
C          1.86712        2.98586       -0.08128
N          2.55956        3.89487       -0.06548
C          1.48698        0.51271       -0.10143
C          2.87850        0.31048       -0.02114
C          3.54321       -0.96305        0.05989
N          4.83217       -1.08978        0.49434
N          3.29368       -2.01533       -0.15214
C          2.29965       -2.37190       -0.47142
C          0.94925       -1.88881       -0.37182
C          0.56045       -0.55266       -0.19406
C         -0.87666       -0.32344       -0.13181
C         -2.00999       -1.19006        0.05798
N         -2.19178       -2.50987        0.36532
H         -3.00561        3.12219       -0.30422
H         -4.48994        2.23172       -0.11629
H         -0.73827        3.09558       -0.22615
H          3.60015        1.12112        0.04089
H          5.30949       -1.97966        0.40405
H          5.39426       -0.26065        0.64990
H          2.64158       -3.39379       -0.59176
H          0.23677       -2.69804       -0.49271
H         -1.38655       -3.06052        0.64201
H         -3.10949       -2.81659        0.67097
