27
Coordinates from ORCA-job ./opt_b97-3c_parallel
N          0.75957       -3.12950       -0.92063
C          0.94867       -2.03809       -0.63930
C          1.20294       -0.65437       -0.29785
C          2.60527       -0.32268       -0.17648
N          3.57709       -1.19830        0.23610
N          3.24973        0.56625       -0.06621
C          2.87743        1.59740        0.06465
C          1.61778        2.28733        0.05183
C          0.35745        1.68627       -0.03283
N         -0.68631        2.55168        0.00044
C         -1.95417        2.10229       -0.07012
C         -2.26095        0.75137       -0.14965
C         -3.56433        0.29233       -0.12738
C         -3.73329       -1.12747       -0.08731
C         -2.30638       -1.07887        0.12025
N         -1.94527       -2.18275        0.84299
C         -1.19910       -0.20966       -0.20552
C          0.16289        0.28708       -0.17171
H          4.54633       -0.90158        0.25524
H          3.38870       -2.19468        0.21448
H          3.79086        1.88242        0.57512
H          1.71802        3.36662        0.14630
H         -2.73210        2.86213       -0.02346
H         -4.39707        0.98910       -0.06439
H         -4.44055       -1.65562        0.54590
H         -2.61797       -2.93469        0.94135
H         -0.96170       -2.42864        0.88179
