27
Coordinates from ORCA-job ./opt_b97-3c_parallel
N         -5.14472        0.66262        0.00303
C         -4.05240        0.99938        0.00132
C         -2.62453        0.97945        0.00129
C         -1.93394        2.24850        0.00066
N         -0.80809        2.26725        0.00029
C         -0.40316        0.97592        0.00049
C         -1.48355        0.14607        0.00106
C         -1.37469       -1.23201        0.00147
C         -2.53089       -2.09008        0.00195
N         -3.44060       -2.78188        0.00231
C         -0.08983       -1.76455        0.00126
C          1.05779       -0.94709        0.00062
C          2.25414       -1.67135        0.00043
C          3.57159       -1.23461       -0.00029
C          4.06258        0.06322       -0.00093
N          5.42270        0.19715       -0.00156
C          3.32219        1.23791       -0.00086
C          1.94317        1.40921       -0.00028
C          0.90969        0.46185        0.00027
H         -2.33889        3.25385        0.00043
H          0.01207       -2.84842        0.00163
H          2.16417       -2.75572        0.00083
H          4.31540       -2.02941       -0.00036
H          6.01598       -0.62534       -0.00175
H          5.84564        1.11874       -0.00223
H          3.89512        2.16349       -0.00132
H          1.65296        2.45657       -0.00031
