28
Coordinates from ORCA-job ./opt_b97-3c_parallel
N          5.65004       -0.92045       -0.57122
C          4.80830       -1.05638        0.18960
C          3.42379       -0.72883        0.33701
C          2.43128       -1.76005        0.40461
C          1.11025       -1.35845        0.32824
C          0.06507       -2.25780        0.26585
N         -1.20451       -1.85465        0.08577
C         -1.57353       -0.54054       -0.00464
C         -2.95709       -0.33802       -0.22960
C         -3.83408       -1.49079       -0.34849
N         -4.54095       -2.38469       -0.44169
C         -3.65603        0.85624       -0.39378
C         -3.20752        2.15927       -0.30401
C         -1.93557        2.60627       -0.00788
C         -0.77043        1.87257        0.19528
C          0.35778        2.72426        0.51327
N          1.23290        3.41160        0.77486
C         -0.58454        0.47372        0.13614
C          0.79983        0.03261        0.24574
C          2.22038       -0.01482       -0.01985
N          2.64739        0.95123       -0.89185
H          2.68207       -2.81801        0.45080
H          0.22595       -3.33368        0.30914
H         -4.72137        0.77223       -0.60761
H         -3.95813        2.93137       -0.45820
H         -1.84932        3.69088        0.05530
H          3.64644        1.10253       -0.98419
H          2.03841        1.74460       -1.06038
