30
Coordinates from ORCA-job ./opt_b97-3c_parallel
N          5.38677       -1.36559        0.45323
C          4.28561       -1.11575        0.27553
C          2.89293       -0.78984        0.06423
C          2.16592       -1.95849       -0.35404
N          1.11448       -2.28663       -0.28456
C          0.32443       -1.63687        0.12675
C         -0.01648       -0.24021        0.01637
C          0.95592        0.79693        0.02126
C          0.46888        2.13469       -0.11114
N          1.27290        3.23296       -0.26563
C         -0.90089        2.41206       -0.17102
C         -1.81835        1.37790       -0.11351
N         -3.16296        1.48082       -0.12839
C         -3.48072        0.40560       -0.05246
N         -4.83420        0.22651        0.00461
C         -2.54137       -0.69717        0.00821
C         -2.92944       -2.06949        0.11576
N         -2.99983       -3.15051        0.48065
C         -1.36914        0.09761       -0.03954
C          2.34450        0.50182        0.18787
N          3.23541        1.48215        0.55130
H          2.51863       -2.79540       -0.94711
H         -0.25222       -2.50911       -0.16288
H          2.24509        3.07616       -0.51039
H          0.84743        4.09784       -0.58103
H         -1.25513        3.43689       -0.26622
H         -5.20857       -0.68411        0.24808
H         -5.43593        1.03369        0.12521
H          2.85711        2.34819        0.92038
H          4.15137        1.19627        0.88122
