33
Coordinates from ORCA-job ./opt_b97-3c_parallel
N         -3.38471       -3.65450       -0.91298
C         -2.83131       -2.69562       -0.62788
C         -2.11497       -1.47973       -0.28149
C         -0.76890       -1.70080       -0.00666
C          0.31031       -0.81233        0.13001
C          1.59279       -1.42111        0.29656
N          1.72672       -2.75750        0.59710
C          2.77871       -0.68344        0.17347
C          4.09031       -1.28497        0.29690
N          5.12806       -1.75224        0.40410
C          2.66323        0.65394       -0.14784
C          3.67157        1.55779       -0.45418
C          3.06070        2.76016       -0.76105
C          1.69046        2.59190       -0.62519
C          1.43554        1.27955       -0.20999
C          0.21409        0.60186        0.03953
C         -0.95821        1.36113        0.29135
N         -0.74679        2.63686        0.77137
C         -2.31709        0.96763        0.21288
C         -3.31714        1.99010        0.51831
N         -4.09948        2.78400        0.77508
C         -2.83129       -0.27877       -0.19256
N         -4.18786       -0.35828       -0.44825
H         -0.52408       -2.75884       -0.02684
H          0.91765       -3.25684        0.94872
H          2.64148       -3.09389        0.88034
H          4.73940        1.35569       -0.48909
H          3.56424        3.66886       -1.08192
H          0.95945        3.36042       -0.86198
H          0.18803        2.89494        1.06825
H         -1.52913        3.15105        1.16309
H         -4.78459        0.42703       -0.20836
H         -4.61742       -1.26970       -0.56820
