30
Coordinates from ORCA-job ./opt_b97-3c_parallel
N         -4.71102       -2.23639        0.06052
C         -3.85245       -1.48155        0.03560
C         -2.75812       -0.54052        0.01534
C         -1.45591       -1.04938       -0.01186
C         -0.25724       -0.31001       -0.01007
C         -0.17743        1.10376        0.01558
C         -1.37747        1.90462       -0.00756
N         -2.47842        1.82241       -0.05408
C         -3.04101        0.87581        0.02330
N         -4.29708        1.40876        0.13009
C          1.07444        1.75916        0.05384
N          1.13280        3.12890        0.10811
C          2.26197        1.01095        0.04265
C          3.57147        1.62200        0.08054
N          4.61154        2.09215        0.11670
C          2.13998       -0.36849       -0.00246
C          3.10511       -1.39647       -0.02263
C          2.24423       -2.55414       -0.05616
N          2.75658       -3.81660       -0.09051
N          1.13478       -2.36379       -0.05483
C          0.94743       -1.02360       -0.02351
H         -1.37646       -2.13430       -0.02455
H         -1.53637        2.86958       -0.47857
H         -4.44599        2.39651       -0.04278
H         -5.10445        0.79437        0.11221
H          2.03010        3.56496        0.29572
H          0.29732        3.64013        0.37183
H          4.19055       -1.35885       -0.01909
H          2.13472       -4.60452       -0.23300
H          3.75110       -3.95823       -0.23005
