30
Coordinates from ORCA-job ./opt_b97-3c_parallel
N          4.12880        2.20345        0.03845
C          2.96585        1.48352        0.02006
C          1.79445        2.21053        0.09788
C          0.49181        1.74684        0.05504
C         -0.01788        0.44110        0.01421
C          0.69883       -0.79482        0.00365
C          2.11533       -0.89716       -0.13814
N          2.71154       -2.10543       -0.39988
C          3.08443        0.11020       -0.12456
C         -0.10449       -1.98424        0.11650
N          0.36753       -3.24601        0.35440
N         -1.45354       -2.01506        0.10905
C         -2.04346       -0.82639        0.00766
C         -3.41956       -0.53742       -0.01807
C         -3.37468        0.90493       -0.06523
N         -4.52253        1.63702       -0.14382
N         -2.34727        1.36703       -0.05085
C         -1.42235        0.37430       -0.00943
H          5.01029        1.71032        0.12804
H          4.09653        3.18167        0.30374
H          1.89746        3.29150        0.17472
H         -0.22770        2.56055        0.09088
H          3.66832       -2.10087       -0.73496
H          2.11608       -2.86405       -0.71526
H          4.11440       -0.23006       -0.23757
H         -0.30444       -3.95524        0.62482
H          1.30957       -3.33230        0.72051
H         -4.28516       -1.19117       -0.03818
H         -4.46516        2.63375       -0.32105
H         -5.40454        1.17151       -0.32616
