32
Coordinates from ORCA-job ./opt_b97-3c_parallel
N         -5.70979        0.91886       -0.24246
C         -4.59963        0.65965       -0.16905
C         -3.18743        0.34464       -0.06853
C         -2.37705        1.43483        0.20267
C         -0.98818        1.54712        0.27887
C         -0.64155        2.90780        0.63856
N         -0.39908        3.98600        0.93254
C          0.01126        0.54432        0.13203
C         -0.22579       -0.86503        0.09018
C         -1.48549       -1.48247       -0.07512
C         -2.77577       -0.97907       -0.20670
N         -3.72927       -1.93502       -0.46596
C          0.88753       -1.76278        0.18641
C          0.73436       -3.20053        0.34295
N          0.61874       -4.32962        0.48068
C          2.20806       -1.29875        0.15517
N          3.29501       -2.13491        0.23495
C          2.40674        0.06012        0.01537
C          3.65222        0.73745       -0.17016
N          4.96554        0.50247       -0.45374
N          2.89128        1.56207       -0.13022
C          1.98522        2.22539       -0.12889
C          1.37482        0.93712        0.03887
H         -2.93169        2.36589        0.34347
H         -1.49543       -2.56131       -0.18326
H         -3.47916       -2.91697       -0.41808
H         -4.71143       -1.68143       -0.43125
H          3.14041       -3.09332        0.52991
H          4.19580       -1.71950        0.44727
H          5.24788       -0.44130       -0.69521
H          5.53644        1.26175       -0.80703
H          1.75789        3.00302       -0.84887
