33
Coordinates from ORCA-job ./opt_b97-3c_parallel
N          1.90691       -3.84922        1.23168
C          1.91947       -2.79107        0.80107
C          1.88133       -1.46530        0.24433
C          0.79195       -1.42647       -0.55161
C         -0.14432       -0.52493       -0.18269
C          0.13024        0.88730       -0.13980
C          1.41721        1.45912       -0.55068
N          1.36698        2.52861       -0.85404
C          2.73772        0.80243       -0.44865
C          3.92138        1.56310       -0.77744
N          4.83741        2.19044       -1.04368
C          2.94112       -0.48857        0.20798
N          3.91091       -0.86715        0.59376
C         -1.00950        1.74902        0.12072
N         -0.89786        2.27074        1.09301
C         -2.37804        1.29676        0.07680
C         -3.57608        2.08570        0.02223
N         -4.55187        2.67818       -0.01651
C         -2.53013       -0.07667        0.06612
N         -3.64200       -0.81210        0.04604
C         -3.16150       -2.10734       -0.04259
N         -3.98495       -2.83782       -0.11987
N         -1.86279       -2.22028       -0.07681
C         -1.44301       -0.99565       -0.02662
H          0.81316       -1.84547       -1.55509
H          0.65485        3.24785       -0.96569
H          2.25929        2.98293       -1.04662
H          4.68742       -0.20720        0.55207
H          4.32582       -1.78880        0.72511
H         -1.47733        3.11106        1.09791
H          0.05571        2.58965        1.26802
H         -3.83647       -3.82558       -0.32502
H         -4.99048       -2.68063       -0.18767
