30
Coordinates from ORCA-job ./opt_b97-3c_parallel
N          0.11102        4.65223       -0.07603
C          0.21669        3.51451       -0.06249
C          0.36835        2.07685       -0.04766
C          1.67979        1.62232       -0.10078
C          1.97159        0.22647       -0.08935
C          2.98521       -0.79652       -0.07604
N          4.23331       -0.24293       -0.01890
C          2.72018       -2.21107       -0.10901
C          1.30318       -2.01811       -0.02895
N          0.51207       -3.13133        0.04759
C          0.87259       -0.68987       -0.03021
C         -0.45895       -0.21822        0.01732
N         -1.47810       -1.09153        0.05172
C         -2.54622       -1.31946        0.08155
N         -2.86053       -2.62690       -0.14316
C         -3.53659       -0.29319        0.18885
C         -3.27426        1.07461        0.16795
C         -2.03142        1.71600        0.08005
C         -0.72140        1.17451        0.01544
H          2.51657        2.31616       -0.14708
H          4.33429        0.75465       -0.16989
H          5.04066       -0.83560       -0.17825
H          3.28524       -2.98317        0.40302
H         -0.46262       -3.00333        0.30058
H          0.94572       -4.02332        0.25689
H         -3.82389       -2.88237       -0.32831
H         -2.13570       -3.26647       -0.44837
H         -4.56446       -0.63916        0.27116
H         -4.14361        1.72472        0.22920
H         -2.13990        2.79565        0.07587
