27
Coordinates from ORCA-job ./opt_b97-3c_parallel
N          5.36489       -0.58754        0.00386
C          4.23043       -0.44382        0.00707
C          2.79912       -0.24783        0.00439
C          2.10822       -1.50176       -0.00884
N          1.02878       -1.67503       -0.00341
C         -0.15642       -1.05166        0.00106
C         -1.30652       -1.85634        0.00741
C         -2.58503       -1.29947        0.01294
N         -3.69707       -2.09442        0.02907
C         -2.68082        0.08808        0.00680
C         -3.84984        0.90609        0.01053
N         -2.99192        1.64183        0.00512
C         -2.03041        2.23458        0.00160
C         -1.57908        0.87731        0.00104
C         -0.27382        0.35564        0.00089
C          0.80501        1.26259        0.00464
C          2.18779        1.01513        0.01022
N          2.99041        2.12662        0.02651
H          2.51649       -2.50562       -0.00162
H         -1.19927       -2.93962        0.01014
H         -4.61985       -1.67729       -0.01842
H         -3.60185       -3.10285       -0.01812
H         -4.88985        0.60395        0.00063
H         -1.46630        3.15889       -0.00516
H          0.54236        2.31637        0.00763
H          3.99908        2.02394       -0.01686
H          2.58108        3.05306       -0.02011
