24
Coordinates from ORCA-job ./opt_b97-3c_parallel
N         -3.65470        1.32895       -0.07257
C         -2.68460        0.81170       -0.00840
N         -3.00358       -0.53002       -0.03658
C         -1.87630       -1.32205       -0.00427
N         -2.12402       -2.39245       -0.01230
N         -0.50525       -1.46541        0.03037
C          0.25148       -0.29603        0.05419
C         -0.27661        1.06238        0.07306
N          0.60669        2.08246        0.09601
C          1.92553        1.81805        0.07879
C          2.58573        0.62326        0.02004
C          3.87354        0.20280       -0.20279
C          3.72031       -1.15065       -0.19654
C          2.46471       -1.51160       -0.04680
C          1.68619       -0.40902        0.04911
N         -1.53019        1.39174        0.06961
H         -4.46790        0.71879       -0.15320
H         -3.98712        2.27182       -0.26764
H         -3.12362       -2.58902       -0.03542
H         -1.65851       -3.28825        0.12643
H          2.59027        2.69515        0.10921
H          4.74078        0.69905        0.22189
H          4.54492       -1.85247       -0.30390
H          2.11119       -2.54037       -0.01293
