31
Coordinates from ORCA-job ./opt_b97-3c_parallel
N          5.44843        2.43861       -0.65487
C          4.50014        1.84970       -0.41326
C          3.29139        1.11425       -0.13026
C          3.35435       -0.26124       -0.28916
C          2.36775       -1.22749       -0.09116
C          2.88852       -2.57296       -0.25647
N          3.31706       -3.62516       -0.38484
C          0.98545       -1.04917        0.14826
N          0.25888       -2.20554        0.20619
C         -1.08160       -2.23562        0.30178
N         -1.64452       -3.47846        0.34186
C         -1.83680       -1.07196        0.27539
C         -3.21251       -1.04478        0.10499
C         -3.82415        0.23834       -0.08059
C         -5.15628        0.35767       -0.58618
N         -5.82302        1.16295       -1.05265
C         -2.42969        0.61090       -0.11445
N         -2.43216        1.83857       -0.72098
C         -1.13211        0.16830        0.34174
C          0.32268        0.19180        0.33436
C          0.90500        1.45554        0.55551
C          0.08149        2.52396        1.08245
N         -0.55519        3.36636        1.52026
C          2.21764        1.85742        0.33229
H          4.33370       -0.63984       -0.58662
H         -2.61331       -3.55645        0.62957
H         -1.03474       -4.26323        0.54675
H         -3.78682       -1.96387        0.01059
H         -3.32845        2.28660       -0.88303
H         -1.63689        2.44843       -0.56256
H          2.42714        2.91399        0.50336
