31
Coordinates from ORCA-job ./opt_b97-3c_parallel
N          4.11847       -2.49284       -0.02249
C          3.16188       -1.86610       -0.02232
C          1.94233       -1.08647       -0.01336
C          1.94787        0.32191       -0.03879
N          3.18109        0.92575        0.01414
C          0.72732        1.06907       -0.03190
C          0.70931        2.49790       -0.08817
N          1.78758        3.23865       -0.49512
C         -0.39885        3.28721        0.24543
C         -1.63506        2.77945        0.78043
N         -2.19732        1.90197        0.40987
C         -1.77304        1.01029       -0.08397
N         -2.55969        0.92346       -1.20055
C         -0.49648        0.34291        0.02617
C         -0.46812       -1.05500        0.10668
C         -1.48985       -2.00362        0.22367
C         -2.90787       -1.79349        0.37271
N         -4.03457       -1.64590        0.49566
C         -0.90396       -3.26284        0.23970
C          0.46906       -3.10560        0.13929
C          0.72356       -1.74247        0.06721
H          3.21905        1.89310        0.31780
H          3.98967        0.34483        0.20968
H          1.64561        4.22016       -0.70634
H          2.53701        2.75802       -0.98196
H         -0.36347        4.37268        0.17724
H         -2.36589        3.29204        1.39434
H         -3.47650        1.35619       -1.18042
H         -2.43982        0.13123       -1.82122
H         -1.43067       -4.21019        0.33060
H          1.20509       -3.90657        0.13336
