30
Coordinates from ORCA-job ./opt_b97-3c_parallel
N         -5.55077       -0.90990       -0.23904
C         -4.43680       -0.66099       -0.17400
C         -3.03462       -0.32761       -0.08651
C         -2.68423        1.02229       -0.06629
C         -1.40545        1.60770       -0.00391
C         -1.47603        3.05230        0.00373
N         -1.54502        4.19367        0.00290
C         -0.13645        0.96281        0.02154
C          1.03711        1.76071        0.07326
C          2.31850        1.20995        0.06786
N          3.41926        2.01595        0.13470
C          2.42794       -0.17248       -0.00193
C          3.59410       -0.99374       -0.06196
N          4.93986       -0.81887       -0.19923
N          2.73754       -1.73303       -0.04287
C          1.76663       -2.31622       -0.07013
C          1.33275       -0.95776       -0.02834
C          0.03166       -0.44285       -0.01227
N         -0.99280       -1.30737       -0.02872
C         -2.08044       -1.39763       -0.01934
N         -2.39153       -2.70363        0.23551
H         -3.52652        1.71412       -0.10717
H          0.98580        2.84482        0.11771
H          3.28641        2.99282        0.37322
H          4.30412        1.58920        0.38568
H          5.28821        0.10146       -0.44195
H          5.51885       -1.61551       -0.44016
H          1.17685       -3.22069        0.01620
H         -1.67337       -3.41583        0.17509
H         -3.36156       -3.00072        0.20463
