32
Coordinates from ORCA-job ./opt_b97-3c_parallel
N         -5.43630       -0.74494        0.67340
C         -4.45574       -0.21332        0.42255
C         -3.21986        0.47582        0.10477
C         -3.41939        1.67908       -0.55526
C         -2.49469        2.67904       -0.77650
C         -1.14573        2.69642       -0.46464
C         -0.28620        1.64384       -0.09927
C          1.08705        1.98439        0.06289
N          1.49004        3.29992        0.10553
C          2.08109        1.00250        0.20569
C          3.47129        1.37630        0.37086
N          4.56158        1.69133        0.50744
C          1.69217       -0.32961        0.10063
C          2.46282       -1.49214        0.00919
C          3.89686       -1.63639       -0.01768
N          5.03133       -1.76861       -0.05025
C          1.60074       -2.54920       -0.20937
C          0.30723       -2.05720       -0.22444
C         -0.79736       -2.86050       -0.69165
N         -1.66158       -3.50649       -1.06807
C          0.35161       -0.67314        0.01958
C         -0.68477        0.29176        0.07000
C         -1.98901       -0.12352        0.43290
N         -2.06719       -1.17756        1.31612
H         -4.44305        1.93236       -0.82884
H         -2.89432        3.60116       -1.19315
H         -0.71533        3.67426       -0.65488
H          0.78842        4.01390        0.26574
H          2.43844        3.50155        0.40578
H          1.89462       -3.57584       -0.41792
H         -2.97241       -1.59806        1.50126
H         -1.23580       -1.71978        1.51962
