28
Coordinates from ORCA-job ./opt_b97-3c_parallel
N         -5.07745        0.04533        0.27100
C         -3.96033        0.26579        0.16807
C         -2.54187        0.56104        0.04999
C         -2.31944        1.91596       -0.15654
C         -1.12271        2.59546       -0.18886
C          0.15519        2.08766       -0.07473
C          0.60247        0.76204       -0.02833
C         -0.17606       -0.43456       -0.03357
C          0.57615       -1.65193       -0.18754
N          0.05120       -2.87961       -0.48935
N          1.92223       -1.74616       -0.18953
C          2.61047       -0.61327       -0.04989
C          4.05580       -0.59678       -0.02396
C          4.21927        0.84009        0.08468
C          3.02145        1.53501        0.09365
C          2.00141        0.61196        0.00658
C         -1.59650       -0.48885        0.13635
N         -2.15716       -1.69178        0.50868
H         -3.19836        2.55400       -0.24458
H         -1.19589        3.67565       -0.29418
H          0.90080        2.87280       -0.09017
H         -0.91095       -2.91829       -0.80838
H          0.68610       -3.59787       -0.81868
H          4.69986       -1.34501        0.42646
H          5.16180        1.37681        0.15822
H          2.93812        2.61472        0.17394
H         -1.53668       -2.42142        0.84415
H         -3.11233       -1.69543        0.85043
