31
Coordinates from ORCA-job ./opt_b97-3c_parallel
N          2.49075       -3.67754       -0.03451
C          1.98625       -2.65109       -0.02098
C          1.35384       -1.34430        0.01295
C          2.19462       -0.24866        0.21308
N          3.55423       -0.35258        0.36320
C          1.73476        1.10637        0.19032
C          2.41979        2.36500        0.09887
C          1.37479        3.33530       -0.03947
C          0.09397        2.70255       -0.17323
N         -0.89579        3.53999       -0.60853
C          0.31900        1.30169        0.07676
C         -0.56276        0.13767        0.08631
C         -1.90589        0.50141        0.26569
C         -3.07965       -0.24193        0.20677
N         -4.24313        0.43993        0.43316
C         -3.21369       -1.58420       -0.10182
C         -2.20526       -2.50039       -0.33236
C         -0.82941       -2.32647       -0.27994
C         -0.04932       -1.17055       -0.07153
H          3.99297       -1.25420        0.20702
H          4.12209        0.48077        0.26041
H          3.47366        2.60632        0.21235
H          1.54376        4.40681       -0.08276
H         -0.66561        4.49105       -0.86660
H         -1.75764        3.13620       -0.95972
H         -2.08339        1.54798        0.49273
H         -4.19155        1.37217        0.82806
H         -5.09776       -0.08856        0.57150
H         -4.22664       -1.97840       -0.16031
H         -2.53974       -3.51217       -0.54939
H         -0.32199       -3.26894       -0.45409
