24
Coordinates from ORCA-job ./opt_b97-3c_parallel
N         -1.40094        2.92721       -1.89460
C         -1.49468        2.00404       -1.22717
C         -1.59557        0.87230       -0.35920
C         -2.87297        0.48538        0.17937
C         -3.06732       -0.65407        0.89706
C         -2.67394       -1.61352        0.01428
N         -1.58378       -2.12070       -0.57810
C         -0.46039       -1.40668       -0.33568
N          0.71359       -2.09972       -0.35036
C          1.87684       -1.48466       -0.03963
N          3.01506       -2.23573       -0.09109
C          1.89188       -0.14040        0.31367
C          2.98232        0.71570        0.64309
N          2.07335        1.39339        0.63981
C          1.07940        1.93459        0.58998
C          0.75286        0.57912        0.28570
C         -0.46711       -0.00361       -0.08088
H         -3.71968        1.12066       -0.06460
H         -3.96908       -0.78700        1.48985
H         -3.20691       -2.46742       -0.43006
H          2.96314       -3.14895       -0.52868
H          3.90957       -1.75954       -0.09256
H          4.06914        0.55155        0.59756
H          0.87546        3.01508        0.63308
