28
Coordinates from ORCA-job ./opt_b97-3c_parallel
N          4.33431       -1.81436        0.02031
C          3.29812       -1.32871       -0.00184
C          1.99358       -0.70690       -0.01318
C          0.79508       -1.43563        0.01253
N          0.89961       -2.80435        0.09375
C         -0.47228       -0.77809       -0.00881
C         -1.60456       -1.61237       -0.09881
C         -2.96197       -1.31920       -0.10365
C         -3.60184       -0.09804        0.03117
N         -4.96839       -0.12012        0.04739
C         -2.99817        1.14343        0.14572
C         -1.64814        1.46151        0.11757
C         -0.51109        0.64295        0.03466
C          0.71468        1.33424        0.00310
N          0.95077        2.66880       -0.00098
C          2.06100        2.86207       -0.04214
C          2.88048        1.67553       -0.06779
C          1.89330        0.66870       -0.03875
H          1.82221       -3.19966        0.24080
H          0.11376       -3.31491        0.48126
H         -1.44430       -2.67930       -0.20569
H         -3.61194       -2.18701       -0.20741
H         -5.47514        0.75634       -0.00856
H         -5.44908       -0.97166       -0.22101
H         -3.66741        1.99575        0.24726
H         -1.48163        2.53326        0.18860
H          2.35812        3.90366       -0.06517
H          3.96223        1.60900       -0.12163
