33
Coordinates from ORCA-job ./opt_b97-3c_parallel
N         -1.41466        4.26363       -0.33420
C         -0.94679        3.22405       -0.26016
C         -0.33588        1.90698       -0.16320
C          1.06521        1.88541       -0.17411
N          1.82777        3.02598       -0.23962
C          1.68923        0.65974       -0.04304
C          3.08715        0.40243        0.10563
N          4.34237        0.93627        0.07088
N          2.60997       -0.60859        0.24066
C          1.93925       -1.50453        0.35822
N          2.46057       -2.67836        0.82031
C          0.98608       -0.49441       -0.00223
C         -0.42645       -0.55496       -0.09675
C         -1.03468       -1.82888       -0.25770
C         -0.27803       -2.95164       -0.77421
N          0.28656       -3.84779       -1.20489
C         -2.36977       -2.19239       -0.09616
C         -3.46072       -1.41892        0.23663
C         -3.52293       -0.04282        0.32186
N         -4.75848        0.47523        0.59760
C         -2.49686        0.87334        0.11829
C         -1.10479        0.70178       -0.05706
H          1.36889        3.92452       -0.13153
H          2.81193        2.96235       -0.00328
H          4.47176        1.87868       -0.27984
H          5.14666        0.31954        0.07706
H          3.46245       -2.82709        0.80033
H          1.85997       -3.49365        0.88525
H         -2.61083       -3.24761       -0.22612
H         -4.39187       -1.96394        0.38140
H         -5.56517       -0.13926        0.59763
H         -4.90982        1.47398        0.50661
H         -2.87769        1.88644        0.18332
