28
Coordinates from ORCA-job ./opt_b97-3c_parallel
N         -2.41863        3.64123        0.12299
C         -2.43220        2.49885        0.08090
C         -2.47481        1.05959        0.03013
C         -3.68227        0.37133        0.03520
C         -3.41597       -0.98529        0.00031
C         -2.04033       -1.12467       -0.02370
C         -1.32569       -2.30799       -0.05709
C          0.06327       -2.23295       -0.06594
N          0.76766       -3.40612       -0.10460
C          0.71513       -0.98327       -0.04001
C          2.15817       -0.98520       -0.01408
N          3.06228       -0.35143        0.00877
C          3.00568        0.74639       -0.07375
N          4.33489        1.05414       -0.13811
C          1.98222        1.75571       -0.07442
C          0.61047        1.49596       -0.04601
C         -0.01949        0.23216       -0.02802
C         -1.42957        0.12017       -0.00894
H         -4.67169        0.82228        0.06675
H         -4.14953       -1.78783       -0.00229
H         -1.83905       -3.26676       -0.07220
H          0.26527       -4.26449       -0.30207
H          1.75161       -3.36908       -0.34712
H          2.82158       -1.69224        0.47290
H          4.63158        2.02246       -0.10253
H          5.02871        0.33349        0.02807
H          2.33157        2.78515       -0.09640
H          0.01182        2.39110       -0.05416
