31
Coordinates from ORCA-job ./opt_b97-3c_parallel
N         -3.60618        3.21625       -0.20564
C         -2.76611        2.44466       -0.13383
C         -1.69097        1.48747       -0.05161
C         -0.37308        1.93037        0.09971
C          0.71922        1.03596        0.15991
C          2.02770        1.55766        0.30190
N          2.21842        2.88444        0.58580
C          3.19972        0.80825        0.15362
C          3.24004       -0.56486       -0.27890
N          4.22465       -1.04157       -1.09567
N          2.53913       -1.40569       -0.12042
C          1.47930       -1.35545        0.19082
N          1.42059       -2.40124        1.07110
C          0.44699       -0.35073        0.07960
C         -0.88298       -0.74397       -0.06785
C         -1.49039       -2.01394       -0.15810
C         -2.87770       -1.62531       -0.25606
N         -3.86774       -2.55881       -0.33572
N         -3.11610       -0.52483       -0.24915
C         -1.93259        0.11952       -0.12760
H         -0.21169        3.00461        0.14329
H          3.14810        3.19041        0.85141
H          1.43176        3.42096        0.93388
H          4.17594        1.26737        0.29357
H          4.27566       -2.03235       -1.30316
H          5.02307       -0.45866       -1.32302
H          0.54000       -2.63919        1.51304
H          2.15861       -3.09663        1.07075
H         -1.06888       -3.01367       -0.14060
H         -4.82501       -2.26404       -0.49468
H         -3.63957       -3.54032       -0.44374
