31
Coordinates from ORCA-job ./opt_b97-3c_parallel
N          5.91467       -1.29557        0.85210
C          4.89756       -0.82077        0.63454
C          3.60958       -0.26608        0.36282
C          2.55510       -1.12818        0.34544
C          1.25877       -0.46242        0.09286
C          1.88805        0.81413       -0.04802
C          0.95978        1.80807       -0.51999
C         -0.42737        1.64952       -0.46720
C         -1.19464        2.78904       -0.91283
N         -1.80357        3.67812       -1.29081
C         -1.01741        0.41836       -0.08489
C         -2.48508        0.28940        0.26097
C         -3.22233        1.09359        0.48042
N         -3.69424        1.90447        1.13729
C         -3.26529       -0.84337        0.38502
N         -4.15497       -1.48963        0.58733
N         -3.07106       -2.15621       -0.00986
C         -1.76733       -2.42211       -0.38745
N         -1.52536       -3.43047       -0.76515
N         -0.44988       -2.03788       -0.46388
C         -0.13880       -0.74721       -0.05730
C          3.22192        1.02002        0.13159
N          4.01841        2.09195        0.00650
H          2.69120       -2.19699        0.50038
H          1.39782        2.75308       -0.83941
H         -4.45259       -0.59039        0.96503
H         -4.86234       -2.15801        0.89589
H         -2.33829       -4.02505       -0.92169
H         -0.72241       -3.95797       -1.10717
H          4.98539        2.05176        0.32813
H          3.66415        3.02828        0.19151
