30
Coordinates from ORCA-job ./opt_b97-3c_parallel
N         -5.30184        1.11629       -0.08434
C         -4.19657        0.97541       -0.34176
C         -2.99215        0.24946       -0.08258
C         -2.61391       -1.13467        0.05357
N         -3.61295       -2.04041        0.28348
C         -1.29794       -1.71669        0.06675
C         -0.66617       -0.43152       -0.08448
C         -1.59856        0.59492       -0.10284
N         -1.26916        1.89391       -0.11811
C          0.04085        2.17672       -0.08311
C          1.06885        1.22242       -0.05503
C          2.32949        1.81868        0.03867
C          3.58546        1.25228        0.15815
C          3.92698       -0.08678        0.12863
N          5.25638       -0.37459        0.27035
C          3.07347       -1.16068       -0.08337
C          1.68212       -1.21110       -0.21354
N          1.27902       -2.48232       -0.52987
C          0.73385       -0.15601       -0.11268
H         -4.54513       -1.69142        0.48393
H         -3.37206       -2.97165        0.60392
H         -0.98922       -2.49631        0.75685
H          0.25579        3.24408       -0.06536
H          2.35137        2.90643        0.06735
H          4.40320        1.96088        0.27838
H          5.52898       -1.33705        0.43683
H          5.87731        0.35632        0.60032
H          3.58453       -2.12137       -0.15513
H          1.99024       -3.14979       -0.80729
H          0.35546       -2.60153       -0.93010
