29
Coordinates from ORCA-job ./opt_b97-3c_parallel
N          1.19945        4.17002        0.05276
C          0.81590        3.09225        0.04339
C          0.32739        1.73001        0.01425
C         -1.05752        1.52252       -0.05065
N         -1.94589        2.56432       -0.13913
C         -1.53564        0.17066       -0.09490
C         -2.87079       -0.27452        0.07121
N         -3.87789        0.15508        0.21845
C         -2.80360       -1.63462        0.06185
C         -1.53655       -2.04051       -0.06938
N         -1.22987       -3.34435       -0.17712
C         -0.72686       -0.92360       -0.14079
C          0.70962       -0.68229       -0.04988
N          1.29195       -1.90982       -0.06857
C          2.61259       -2.19183       -0.01130
N          3.75612       -1.42242        0.07174
C          3.57357       -0.07505        0.11031
C          2.68181        0.93193        0.10332
C          1.22494        0.63603        0.02522
H         -2.87646        2.36788       -0.49104
H         -1.57427        3.49619       -0.29259
H         -4.84827       -0.11540        0.36449
H         -3.76939        1.09413        0.59809
H         -3.66091       -2.30571        0.11087
H         -0.27069       -3.65356       -0.02867
H         -1.86134       -4.06060        0.17412
H          2.92147       -3.24765       -0.03616
H          4.60849        0.29368        0.17053
H          3.08323        1.94015        0.15596
