31
Coordinates from ORCA-job ./opt_b97-3c_parallel
N          5.02831       -1.77375       -0.85338
C          4.04229       -1.26408       -0.58068
C          2.79065       -0.61792       -0.25922
C          2.83804        0.75784       -0.14691
C          1.81377        1.64071        0.16530
C          2.30182        2.99638        0.35220
N          2.69282        4.05813        0.51605
C          0.43094        1.37521        0.26506
N         -0.32533        2.46903        0.62078
C         -0.24977        0.13301        0.13151
C          0.34270       -1.16369        0.14939
C          1.70517       -1.45442       -0.04019
C         -0.49716       -2.30442        0.31565
N         -0.01709       -3.57428        0.51411
C         -1.88421       -2.20494        0.29664
C         -2.45726       -0.97189        0.08546
N         -3.77343       -0.71894       -0.06991
C         -3.85241        0.37944       -0.28000
N         -5.03506        0.96467       -0.62264
C         -2.62954        1.14077       -0.26465
C         -1.66528        0.13511        0.02287
H          3.82682        1.20007       -0.27933
H          0.15550        3.31248        0.91656
H         -1.25482        2.30881        0.99254
H          1.98410       -2.50204       -0.10860
H          0.95344       -3.68363        0.78607
H         -0.66861       -4.28850        0.82124
H         -2.51274       -3.08853        0.39395
H         -5.84161        0.37792       -0.80509
H         -5.03793        1.90457       -1.00194
H         -2.52051        2.18198       -0.54890
