30
Coordinates from ORCA-job ./opt_b97-3c_parallel
N          3.01469        2.49185        0.85399
C          2.49455        1.47454        0.87186
C          2.10729        0.50689       -0.11387
C          2.93526       -0.67433       -0.02422
N          4.30319       -0.73661       -0.00184
C          2.56903       -2.05709        0.15165
C          1.19474       -1.65774        0.11644
C          0.17426       -2.57812        0.30385
C         -1.13953       -2.13490        0.31090
C         -1.44021       -0.78601        0.09885
C         -2.83920       -0.42377        0.10643
N         -3.81753       -1.12997       -0.53809
N         -3.42298        0.44310        0.46230
C         -3.04208        1.47734        0.54484
C         -1.96239        2.12014       -0.15616
C         -0.72375        1.52436       -0.41783
N          0.17478        2.36000       -1.02422
C         -0.41425        0.16429       -0.13506
C          0.92165       -0.31298       -0.08761
H          4.74082       -1.58559        0.33794
H          4.81167        0.13279        0.12408
H          2.99492       -2.89751       -0.38936
H          0.39795       -3.63077        0.46385
H         -1.93847       -2.85348        0.47724
H         -3.61301       -2.04792       -0.91466
H         -4.78946       -0.87413       -0.40147
H         -3.69232        1.89275        1.30551
H         -2.15323        3.16187       -0.40608
H         -0.12841        3.27853       -1.32859
H          1.02007        1.97248       -1.42813
