29
Coordinates from ORCA-job ./opt_b97-3c_parallel
N         -6.05574       -0.02535       -0.29502
C         -4.92800        0.12828       -0.19779
C         -3.50751        0.28117       -0.09110
C         -3.04519        1.57595       -0.04766
C         -1.71330        1.28625        0.01328
C         -0.59848        2.17058        0.09381
C          0.77790        1.76419        0.06718
C          1.66529        2.88140        0.18269
N          2.38708        3.75672        0.30954
C          1.09234        0.33703        0.03019
C          2.43653       -0.05913       -0.02729
C          3.67725        0.66304       -0.14998
N          4.49614        0.96988       -0.88747
C          3.06341       -1.31705        0.00968
N          3.84987       -2.11035        0.00861
N          2.48841       -2.57835        0.16960
C          1.11668       -2.71622        0.20383
N          0.16933       -1.88202       -0.00420
C         -0.01606       -0.60970        0.02713
C         -1.36310       -0.07984        0.00819
C         -2.57526       -0.82201       -0.05616
N         -2.81919       -1.90038       -0.08889
H         -3.49000        2.30961        0.62155
H         -0.97911        3.18980        0.14548
H          4.48994       -2.87498        0.22843
H          4.40126       -1.44100       -0.53114
H          0.48518       -3.60878        0.33670
H         -3.83626       -1.94626       -0.14960
H         -2.49727       -2.85743        0.03898
