27
Coordinates from ORCA-job ./opt_b97-3c_parallel
N         -5.09907       -0.32246       -0.67750
C         -3.96949       -0.40992       -0.54021
C         -2.55059       -0.55479       -0.33606
C         -2.14297       -1.94406       -0.29076
N         -0.93882       -2.49321       -0.02782
C          0.23893       -1.88479        0.12524
N          0.54398       -2.94260        0.26752
C          0.53478       -0.50260       -0.12068
C         -0.30684        0.65582       -0.00705
C          0.35497        1.93745        0.19547
N          0.41370        3.03225        0.33692
N          1.72349        2.17330        0.25537
C          2.47483        1.07025        0.07429
N          3.84503        1.01975        0.04306
C          4.17471       -0.31225       -0.18413
N          3.02307       -1.09284       -0.29187
C          1.96074       -0.23485       -0.13464
C         -1.75984        0.59537       -0.15626
N         -2.23303        1.60243       -0.14242
H         -2.85235       -2.78116       -0.39053
H          0.39026       -3.66930        0.97193
H          1.14617       -3.38213       -0.43202
H         -0.55221        3.07382        0.66282
H          0.68510        3.99771        0.14495
H          5.27676       -0.34116       -0.20610
H         -2.29205        2.29638       -0.88967
H         -3.13508        1.64665        0.33585
