25
Coordinates from ORCA-job ./opt_b97-3c_parallel
N          3.90117       -1.00298       -0.77418
C          3.00342       -0.36284       -0.47135
C          1.88379        0.48444       -0.12071
C          2.29646        1.83400       -0.11605
C          1.54404        2.99593        0.05567
C          0.12736        3.09027        0.21295
N         -0.45297        2.17318        0.11297
C         -0.56069        0.84295        0.02515
C          0.55503       -0.03518        0.02444
C          0.26753       -1.43930        0.12817
C          1.23076       -2.47308        0.43978
N          1.96683       -3.30571        0.70827
C         -1.04105       -1.93181        0.07198
C         -2.08186       -1.03648       -0.04967
C         -3.44476       -1.26770       -0.12909
C         -4.06112       -0.02286       -0.18389
C         -3.07558        0.95834       -0.12671
C         -1.84755        0.31146       -0.04849
H          3.35839        2.02488       -0.27045
H          2.02844        3.96913        0.03136
H         -0.43625        3.73361        0.87835
H         -1.24751       -2.99795        0.14506
H         -3.93941       -2.23580       -0.14234
H         -5.13117        0.15461       -0.25476
H         -3.23944        2.03312       -0.14809
