35
Coordinates from ORCA-job ./opt_b97-3c_parallel
N          5.18279       -1.02105       -1.26280
C          4.16237       -0.71731       -0.84584
C          2.86442       -0.32968       -0.29868
C          2.62507        1.05186       -0.15101
N          3.68144        1.88789       -0.47311
C          1.44621        1.68428        0.30631
C          1.56608        3.11218        0.60180
N          1.67688        4.22686        0.83358
C          0.13772        1.14521        0.33095
N         -0.86773        2.07796        0.40908
C         -2.16518        1.75483        0.27857
N         -3.07470        2.76943        0.34418
C         -2.52011        0.44524        0.02029
C         -3.78947       -0.10126       -0.33378
N         -5.05783        0.30887       -0.62483
N         -3.08594       -0.98561       -0.35859
C         -2.22744       -1.71833       -0.39174
N         -2.34793       -3.00731       -0.82357
C         -1.57355       -0.51623        0.03304
C         -0.20155       -0.23235        0.25099
C          0.67977       -1.30801        0.48698
C          0.12128       -2.47358        1.16046
N         -0.29485       -3.38612        1.70992
C          2.05144       -1.37447        0.17836
N          2.64932       -2.61740        0.29124
H          3.61083        2.88539       -0.29879
H          4.58411        1.49364       -0.71723
H         -2.76315        3.66226        0.71030
H         -4.05066        2.52510        0.47055
H         -5.67762       -0.32385       -1.11775
H         -5.23911        1.30229       -0.71757
H         -1.55889       -3.63704       -0.72181
H         -3.26947       -3.41920       -0.91378
H          2.15280       -3.36586        0.76398
H          3.65735       -2.69262        0.20018
