27
Coordinates from ORCA-job ./opt_b97-3c_parallel
N          4.56551        2.63828       -0.17989
C          3.85546        1.74729       -0.09082
C          2.96244        0.61701        0.00056
C          3.57030       -0.62391        0.11016
C          2.96233       -1.86336        0.18040
C          1.61479       -2.18784        0.11734
C          0.47277       -1.37026        0.01945
C         -0.77726       -2.05035       -0.05241
N         -0.88771       -3.41369       -0.14384
C         -1.98394       -1.35708       -0.06023
C         -1.93146        0.01690       -0.01155
C         -2.97515        0.96567       -0.00105
C         -4.40311        0.99756        0.00205
N         -5.42932        0.49657        0.03596
C         -2.15229        2.15220        0.03097
N         -1.03159        2.04154        0.03184
C         -0.76707        0.71384        0.00855
C          0.47941        0.05284        0.01021
C          1.59909        0.90200       -0.01445
H          4.65868       -0.63727        0.14509
H          3.64102       -2.70780        0.27809
H          1.46874       -3.26145        0.17670
H         -1.79370       -3.80294       -0.38004
H         -0.06965       -3.93893       -0.43078
H         -2.94007       -1.87476       -0.10441
H         -2.44718        3.19429        0.06022
H          1.39201        1.96818       -0.06751
