27
Coordinates from ORCA-job ./opt_b97-3c_parallel
N          4.83829       -0.49052        0.02011
C          3.73808       -0.79936        0.02237
C          2.35713       -1.21251        0.02257
C          1.95953       -2.54076        0.00068
C          0.57425       -2.58174        0.00040
C          0.10913       -1.27008        0.01819
C          1.20481       -0.42142        0.03296
C          1.04008        0.96756        0.05729
C          2.17149        1.86898        0.09672
N          3.05206        2.59655        0.13395
C         -0.27238        1.47277        0.04558
N         -0.48179        2.83045        0.06734
C         -1.38254        0.60380        0.01497
C         -2.70438        1.18205       -0.04424
N         -3.77896        0.93362       -0.02910
C         -4.16683       -0.08996        0.10471
C         -3.63287       -1.42398        0.07303
C         -2.27008       -1.72610        0.03380
C         -1.20918       -0.79834        0.02063
H          2.62103       -3.40407       -0.01640
H         -0.02057       -3.49061       -0.01728
H         -1.41076        3.17364        0.28550
H          0.30668        3.43819        0.26472
H         -3.03496        2.03865       -0.62284
H         -5.20602        0.21742        0.13867
H         -4.36967       -2.22317        0.09348
H         -2.03726       -2.78542        0.02989
