23
Coordinates from ORCA-job ./opt_b97-3c_parallel
N          5.15839        0.77623        0.00450
C          4.08387        0.38613        0.00401
C          2.71963       -0.04411        0.00325
C          2.62649       -1.42446        0.00144
C          1.40069       -2.15799        0.00052
C          0.12123       -1.71139        0.00160
C         -0.47062       -0.48156        0.00218
C          0.25569        0.77512        0.00296
C         -0.46834        2.02510        0.00248
C         -1.84778        2.04586        0.00211
C         -2.53173        0.79273        0.00151
N         -3.84369        0.62578        0.00026
C         -3.90546       -0.75613       -0.00009
N         -2.76595       -1.39574        0.00103
C         -1.86836       -0.46001        0.00177
C          1.68624        0.96211        0.00391
H          3.53389       -2.02436        0.00088
H          1.52828       -3.23650       -0.00094
H         -0.57073       -2.55091       -0.00031
H          0.06148        2.97494        0.00304
H         -2.37324        2.99770        0.00143
H         -4.89536       -1.23657       -0.00132
H          2.04265        1.98855        0.00492
