28
Coordinates from ORCA-job ./opt_b97-3c_parallel
N         -5.84551       -0.39632        0.00766
C         -4.72939       -0.15040        0.02242
C         -3.32014        0.15965        0.02582
C         -2.99561        1.50758        0.05952
C         -1.73588        2.07937        0.07953
C         -0.48975        1.46852        0.05439
C         -0.13652        0.11130       -0.00646
C         -1.04775       -0.97381       -0.02422
C         -0.54690       -2.28510       -0.06740
C          0.81221       -2.55151       -0.10366
C          1.70258       -1.49379       -0.09813
C          3.11629       -1.70874       -0.12878
C          3.29003       -0.27984       -0.02628
N          4.65775       -0.26169        0.06048
C          2.31231        0.78749       -0.05567
C          2.86525        2.04189       -0.47156
N          3.03797        3.14285       -0.21623
C          1.24871       -0.18783       -0.04944
C         -2.44810       -0.92535       -0.00387
H         -3.82557        2.21231        0.07926
H         -1.72049        3.16642        0.11764
H          0.30768        2.19904        0.08943
H         -1.22407       -3.13678       -0.07415
H          1.16952       -3.57820       -0.13626
H          3.62953       -2.47470        0.44769
H          5.17507       -1.10326       -0.16842
H          5.13445        0.62908       -0.03357
H         -2.95166       -1.89153       -0.02080
