30
Coordinates from ORCA-job ./opt_b97-3c_parallel
N          4.94151       -2.37455        0.94461
C          4.07004       -1.72072        0.60198
C          3.01046       -0.87779        0.14095
C          2.07725       -1.60180       -0.53991
C          0.82948       -1.20932       -0.76072
C          0.24090       -0.04585       -0.33110
C          0.90433        1.25918       -0.25170
N          2.24376        1.41670       -0.19203
C          3.23460        0.53099        0.02173
N          3.81447        1.45917        0.16216
N          0.20909        2.46312       -0.13072
C         -1.16433        2.44441       -0.04230
N         -1.69252        3.41396        0.01124
C         -1.85023        1.19846        0.00224
C         -3.12156        0.44340        0.04521
C         -3.25817       -0.91135       -0.01475
C         -4.62237       -1.34031        0.05140
N         -5.71917       -1.64795        0.11963
C         -1.93152       -1.22976       -0.05966
N         -1.82197       -2.50190        0.35806
C         -1.20324       -0.07437       -0.10871
H          2.37557       -2.55347       -0.98280
H          0.22961       -1.87964       -1.37438
H          4.17618        2.24248        0.70581
H          4.60271        0.82621        0.02413
H         -1.34501        4.37192       -0.05861
H         -2.70990        3.50073        0.03705
H         -3.98605        1.10571        0.08541
H         -1.14399       -2.76833        1.07046
H         -2.65719       -3.07239        0.49834
