31
Coordinates from ORCA-job ./opt_b97-3c_parallel
N          1.01544       -4.10070        0.15222
C          0.56540       -3.04943        0.16569
C         -0.01527       -1.71991        0.19795
C         -1.39542       -1.59490        0.34561
N         -2.24394       -2.66177        0.48363
C         -1.99127       -0.29819        0.36290
C         -3.16431        0.40646       -0.08797
N         -4.31729       -0.26684       -0.37770
C         -3.32136        1.81800       -0.31327
C         -1.89568        1.93872       -0.30858
C         -1.15345        0.83982        0.11523
C          0.26456        0.73771        0.15751
C          1.10631        1.89099        0.27714
C          0.56118        3.16859        0.68254
N          0.15599        4.18488        1.01380
C          2.51462        1.96182        0.22531
C          3.44522        0.94686        0.00542
C          3.14594       -0.43585       -0.19022
N          4.04009       -1.34125       -0.67792
N          2.11924       -0.76534       -0.04753
C          0.80256       -0.57382        0.11339
H         -3.19343       -2.48457        0.79272
H         -1.84540       -3.57637        0.66853
H         -4.27338       -1.27504       -0.47940
H         -5.06247        0.22703       -0.85614
H         -3.99623        2.27501       -1.03064
H         -1.47116        2.83660       -0.74469
H          2.96569        2.94092        0.38387
H          4.50688        1.18314        0.00492
H          3.78272       -2.32076       -0.73429
H          5.02085       -1.09726       -0.75517
