25
Coordinates from ORCA-job ./opt_b97-3c_parallel
N         -2.64327       -2.13582       -0.05920
C         -2.11963       -0.86868        0.00364
C         -3.12433        0.09963        0.01844
C         -3.03013        1.47940        0.05067
C         -1.88839        2.25578        0.03778
C         -0.56752        1.84134       -0.00061
C         -0.02425        0.55063        0.00178
C         -0.71409       -0.69233        0.02957
C          0.07568       -1.87282        0.08282
C          1.46791       -1.85939        0.08078
C          2.11622       -0.64325        0.01216
N          3.44700       -0.41998       -0.02063
C          3.57661        0.69701       -0.08119
C          2.37648        1.49910       -0.09007
C          1.37915        0.49738       -0.02373
H         -3.62708       -2.23385       -0.28349
H         -2.02844       -2.89410       -0.33046
H         -4.14894       -0.26896        0.00868
H         -3.97357        2.02059        0.07441
H         -2.04779        3.33161        0.05313
H          0.12904        2.67312       -0.01627
H         -0.37295       -2.85928        0.13935
H          2.03242       -2.78733        0.12585
H          4.61312        1.00715       -0.13564
H          2.30899        2.57916       -0.16503
