27
Coordinates from ORCA-job ./opt_b97-3c_parallel
N          3.53754       -3.05331       -0.00192
C          3.05326       -2.01875       -0.00101
C          2.39485       -0.74546       -0.00014
C          1.00647       -0.82531       -0.00989
C          0.13060        0.25536       -0.01199
C          0.59800        1.62540       -0.00247
C          1.87996        2.27733        0.00940
N          2.72311        1.55786        0.01264
C          3.10163        0.51435        0.01070
N          4.19379        0.68946        0.01961
C         -0.35785        2.70739       -0.00415
N         -1.68947        2.52064       -0.01495
C         -2.16729        1.26334       -0.02422
N         -3.49288        0.87391       -0.03522
C         -3.50757       -0.52017       -0.04126
N         -4.51042       -0.99291       -0.05012
C         -2.15929       -1.03100       -0.03417
C         -1.82442       -2.41964       -0.03757
N         -1.60121       -3.53803       -0.04138
C         -1.31370        0.12599       -0.02310
H          0.60025       -1.82413       -0.01797
H          2.31083        3.29111        0.01406
H          4.55296       -0.26440        0.01893
H          5.00952        1.29908        0.02851
H         -0.29241        3.80714        0.00047
H         -5.49516       -0.72123       -0.05755
H         -4.51767       -2.01604       -0.05268
