23
Coordinates from ORCA-job ./opt_b97-3c_parallel
N         -4.82674       -1.19547       -0.11522
C         -3.78866       -0.72397       -0.03427
C         -2.48496       -0.12982        0.02810
C         -2.66660        1.22651       -0.07761
C         -1.30970        1.20238       -0.04442
C         -0.43654        2.34429       -0.09668
C          0.94136        2.19331       -0.06751
C          1.52922        0.87884        0.00405
C          2.98009        0.87671       -0.04120
C          3.79150       -0.24698       -0.02957
N          3.60320       -1.57695        0.03272
C          2.28905       -1.95438        0.13041
N          1.11360       -1.43949        0.19288
C          0.69163       -0.22413        0.09237
C         -0.69588       -0.08042        0.07098
C         -1.55749       -1.13578        0.13588
H         -3.22923        1.78251        0.66987
H         -0.87026        3.34020       -0.14969
H          1.56246        3.08580       -0.09607
H          3.45920        1.84798       -0.10985
H          4.88369       -0.13039       -0.09103
H          2.40199       -3.04824        0.16620
H         -1.50927       -1.93884       -0.59764
