25
Coordinates from ORCA-job ./opt_b97-3c_parallel
N          3.25112        1.93403        0.30782
C          2.44522        0.87577       -0.00265
C          1.01288        0.98809       -0.07959
C          0.12783       -0.09658       -0.03148
C          0.51071       -1.46255        0.05137
C          1.84690       -1.87689        0.03588
C          2.98261       -1.00370       -0.09306
N          3.20316        0.07815       -0.07595
N         -0.41996       -2.45665        0.13376
C         -1.73825       -2.14863        0.12643
C         -2.15143       -0.82689        0.02449
C         -3.46362       -0.27592       -0.01102
N         -2.77702        0.62479       -0.08368
C         -1.95362        1.39883       -0.16378
N         -2.03247        2.74880       -0.33813
C         -1.24580        0.16715       -0.05597
H          2.84798        2.82820        0.56357
H          4.24707        1.79535        0.43744
H          0.65188        2.01151       -0.13792
H          2.10371       -2.93217        0.09440
H          3.98133       -1.24555       -0.43755
H         -2.44144       -2.97600        0.19449
H         -4.40598       -0.75423        0.22657
H         -2.93295        3.17327       -0.52851
H         -1.20212        3.26154       -0.61280
