26
Coordinates from ORCA-job ./opt_b97-3c_parallel
N          5.08269       -1.17465        0.09015
C          4.07427       -0.63714        0.10992
C          2.80022        0.00814        0.10735
C          2.55659        1.35708        0.13615
C          1.17577        1.47294        0.15514
C          0.95081        2.88401        0.24221
N          0.71567        3.92903       -0.15708
C          0.55120        0.24468        0.09934
C          1.57942       -0.70364        0.05604
C          1.33302       -2.11197        0.03453
C         -0.00175       -2.50391        0.01985
C         -1.08494       -1.53541        0.03023
C         -2.36918       -2.20673       -0.04084
N         -3.58189       -1.63122       -0.07282
C         -3.76716       -0.31764        0.00430
N         -3.02736        0.72671        0.14669
C         -1.75086        0.89020        0.14361
N         -2.09556        1.93782        0.19729
C         -0.77222       -0.16796        0.08888
H          3.18142        2.02764       -0.45450
H          2.11678       -2.86593        0.03269
H         -0.23704       -3.56632        0.01003
H         -2.88208       -3.17795       -0.10434
H         -4.77787        0.11504       -0.03839
H         -2.66347        2.73779        0.46935
H         -1.39467        1.81217        0.92423
