31
Coordinates from ORCA-job ./opt_b97-3c_parallel
N         -4.84397        2.45875        0.20075
C         -4.15899        1.54876        0.28872
C         -2.94928        0.87349       -0.06551
C         -2.59803       -0.51576       -0.13851
N         -3.60625       -1.42560       -0.32181
C         -1.24033       -0.82420       -0.05245
C         -0.66476       -2.10449       -0.02963
N         -1.39127       -3.26098       -0.04141
N          0.66928       -2.29917        0.03686
C          1.53076       -1.25366        0.04832
C          2.89053       -1.57844        0.10438
C          3.96695       -0.62548        0.15341
N          4.10935        0.46008        0.00849
C          3.30661        1.20211       -0.13581
N          4.03529        2.32826       -0.39056
C          1.86967        1.21497       -0.08340
C          1.06054        0.07714        0.00072
C         -0.36192        0.30774        0.02928
C         -1.54463        1.12355        0.14346
N         -1.17887        2.38980        0.51301
H         -3.35945       -2.33877       -0.68682
H         -4.53063       -1.07100       -0.54308
H         -2.37408       -3.20860        0.20045
H         -0.90482       -4.12832        0.15622
H          3.21418       -2.61638        0.14286
H          4.99943       -0.79069        0.43838
H          5.04027        2.26648       -0.50752
H          3.56791        3.17900       -0.68330
H          1.43072        2.20767       -0.13688
H         -0.23770        2.55014        0.85494
H         -1.90235        3.05294        0.77130
