32
Coordinates from ORCA-job ./opt_b97-3c_parallel
N          4.36270        2.97373        0.75974
C          3.58087        2.17734        0.51470
C          2.57833        1.16495        0.22576
C          1.29347        1.67732        0.13717
C          0.04152        1.07210       -0.05235
C         -1.02309        2.00290       -0.24409
N         -0.83316        3.33150       -0.52841
C         -2.35031        1.61038       -0.20474
C         -2.60324        0.28451        0.01406
C         -3.85585       -0.36433        0.11040
C         -5.24586       -0.03985        0.09709
N         -6.15876        0.64650        0.01484
C         -3.39053       -1.71703        0.27508
N         -2.27415       -1.84232        0.27112
C         -1.62843       -0.65857        0.10853
C         -0.23618       -0.32767        0.02980
C          0.74608       -1.37046       -0.00419
N          0.29425       -2.67386        0.03979
C          2.15977       -1.27924       -0.15334
C          2.87767       -2.52733       -0.42590
N          3.43962       -3.49716       -0.65344
C          2.99087       -0.14866       -0.01593
N          4.35949       -0.33802       -0.09497
H          1.28522        2.75649        0.27326
H          0.04727        3.60244       -0.95321
H         -1.64736        3.88743       -0.76768
H         -3.16309        2.32202       -0.33578
H         -3.95984       -2.63038        0.40081
H         -0.66891       -2.86288        0.28582
H          0.96455       -3.42852        0.13197
H          4.74022       -1.26442       -0.25954
H          4.99247        0.44680        0.02258
