32
Coordinates from ORCA-job ./opt_b97-3c_parallel
N         -0.85290        3.58289        0.86373
C         -1.08233        2.49244        0.60716
C         -1.40136        1.11905        0.30096
C         -2.82995        0.97817        0.41264
N         -3.59881        0.23163        0.14447
C         -3.37789       -0.82770       -0.06682
N         -4.59412       -1.23944       -0.53178
C         -2.23956       -1.70264        0.01406
C         -0.90415       -1.28017        0.06357
C          0.03868       -2.29922        0.13524
C          1.38900       -2.01923        0.25409
N          2.27848       -3.04921        0.37153
C          1.89544       -0.67526        0.15497
C          3.23469       -0.19232       -0.03523
N          4.49552       -0.68269        0.15350
C          3.05609        1.16055       -0.47378
C          1.67079        1.54168       -0.47832
N          1.58018        2.75629       -1.09797
C          0.93954        0.39329       -0.00825
C         -0.48082        0.06741        0.11006
H         -3.59998        1.71922        0.22299
H         -4.76377       -2.22320       -0.70438
H         -5.39307       -0.61774       -0.47368
H         -2.49391       -2.76072        0.01568
H         -0.28624       -3.33808        0.14603
H          3.25953       -2.85336        0.20447
H          1.95003       -3.99519        0.21362
H          4.60424       -1.54057        0.68309
H          5.27772       -0.03850        0.12505
H          3.87534        1.80501       -0.78110
H          0.68658        3.23661       -1.07068
H          2.41419        3.32980       -1.15535
