26
Coordinates from ORCA-job ./opt_b97-3c_parallel
N          0.50115        3.45387        0.19794
C         -0.01580        2.43484        0.14612
C         -0.69479        1.16244        0.10250
C         -2.10052        1.43366        0.25274
N         -3.05839        0.89193        0.15871
C         -3.12148       -0.20661        0.09108
N         -4.33920       -0.29785       -0.52193
C         -2.26464       -1.34601        0.28839
C         -0.86504       -1.31981        0.25461
N         -0.26825       -2.54169        0.35148
C          1.07590       -2.64413        0.27517
C          1.85440       -1.51451        0.07805
C          3.26511       -1.41096       -0.08266
N          2.88815       -0.34815       -0.18447
C          2.33847        0.63688       -0.26787
N          3.13136        1.71011       -0.54818
C          1.28524       -0.29080       -0.00172
C         -0.10712       -0.12095        0.11101
H         -2.63239        2.36981        0.11859
H         -4.91287        0.52880       -0.64791
H         -4.73534       -1.20365       -0.74602
H         -2.79595       -2.28737        0.41349
H          1.50267       -3.64251        0.34722
H          3.99872       -2.20462       -0.16372
H          4.13236        1.59974       -0.65710
H          2.71509        2.62081       -0.71279
