24
Coordinates from ORCA-job ./opt_b97-3c_parallel
N         -3.21910       -1.96125        0.06988
C         -2.66200       -1.01089        0.04472
N         -3.65571       -0.05851       -0.08090
C         -3.14566        1.22635       -0.12376
C         -1.94005        1.86134       -0.08100
C         -0.58942        1.23999        0.04973
N          0.40847        2.16783        0.04252
C          1.69734        1.76465        0.16088
C          2.00626        0.42620        0.38783
C          3.19406       -0.31845        0.09454
N          4.26728       -0.08157        0.06927
N          2.42229       -1.12699        0.00595
C          1.51842       -1.76215       -0.18134
C          0.99473       -0.54702        0.35049
C         -0.37369       -0.14970        0.14770
N         -1.36966       -0.99875        0.13593
H         -4.23172       -2.07777        0.05792
H         -2.82710       -2.88070        0.26737
H         -3.94236        1.98024       -0.21929
H         -1.90769        2.94933       -0.13156
H          2.46844        2.52068        0.02233
H          5.04099       -0.74153        0.01425
H          4.67753        0.83989        0.20455
H          1.36773       -2.76306       -0.61214
