31
Coordinates from ORCA-job ./opt_b97-3c_parallel
N          5.77216       -0.87500       -0.47527
C          4.65358       -0.66065       -0.36659
C          3.24229       -0.40573       -0.22087
C          2.36288       -1.48875       -0.22109
C          0.96655       -1.45427       -0.12782
C          0.09953       -0.34528       -0.06423
C          0.50411        1.00784       -0.07945
C         -0.45859        2.02973       -0.07021
C         -1.82411        1.74487       -0.05192
N         -2.74914        2.75172       -0.04805
C         -2.20072        0.40561       -0.02049
C         -3.50856       -0.16508       -0.00895
N         -4.83198        0.14028       -0.13647
N         -2.82591       -1.06615        0.04813
C         -1.98952       -1.82504        0.10036
N         -1.98769       -3.16654        0.35136
C         -1.28199       -0.58884       -0.00727
N          1.79312        1.37780       -0.08982
C          2.80047        0.95326       -0.08301
N          3.53850        1.95684        0.47853
H          2.80680       -2.47828       -0.30967
H          0.50787       -2.43744       -0.14435
H         -0.13309        3.06800       -0.07955
H         -3.70994        2.51907        0.17802
H         -2.43480        3.69845        0.13387
H         -5.49516       -0.60582       -0.31426
H         -5.09315        1.07582       -0.42696
H         -2.85711       -3.61811        0.61385
H         -1.12690       -3.60310        0.66034
H          3.16085        2.89652        0.50749
H          4.54316        1.84642        0.56310
