21
Coordinates from ORCA-job ./opt_b97-3c_parallel
N          3.98410        0.59705        0.11509
C          2.91550        0.34047        0.05098
N          3.10098       -1.02428        0.02042
C          1.90260       -1.70486       -0.04216
N          0.52287       -1.70311       -0.08428
C         -0.13776       -0.47601       -0.06463
C          0.53675        0.81830       -0.01905
N         -0.19643        1.95040       -0.02114
C         -1.53640        1.88435       -0.05379
C         -2.39532        0.82441       -0.06952
C         -3.67828        0.36864       -0.03933
N         -3.16984       -0.52719        0.34779
C         -2.62520       -1.39998       -0.04238
C         -1.57935       -0.41650       -0.07771
N          1.81551        1.02180        0.01466
H          4.39498        1.45990        0.46751
H          4.75822       -0.05404       -0.01367
H          2.24260       -2.75279       -0.06503
H         -2.23845        2.73216       -0.05855
H         -4.72083        0.61789        0.21092
H         -2.71962       -2.46100        0.23591
