30
Coordinates from ORCA-job ./opt_b97-3c_parallel
N          5.40879        2.76905        0.15890
C          4.52369        2.04693        0.11119
C          3.42806        1.11604        0.05416
C          3.55235       -0.25770        0.01949
C          2.26805       -0.92211       -0.02370
C          1.62480       -2.19267       -0.10983
N          2.40635       -3.30780       -0.20192
C          0.23956       -2.29331       -0.09122
C         -0.61158       -1.16688       -0.02311
C         -2.01995       -1.38449        0.02355
C         -2.54154       -2.73495        0.03282
N         -2.96619       -3.79523        0.04755
C         -3.05567       -0.43518        0.09373
C         -2.97673        0.95735        0.09877
C         -4.21470        1.69612        0.18604
N         -5.20437        2.26499        0.25005
C         -1.74276        1.68536        0.00301
N         -1.66176        3.01828       -0.29132
N         -0.74366        1.23970        0.01138
C         -0.01082        0.11485       -0.00016
C          1.39025        0.23034        0.00199
C          2.09318        1.42834        0.04148
H          4.53419       -0.72502        0.02978
H          3.40613       -3.22332       -0.05449
H          1.97807       -4.22178       -0.10293
H         -0.15626       -3.30349       -0.13981
H         -4.06922       -0.83402        0.15115
H         -2.50406        3.58326       -0.27481
H         -0.76757        3.49352       -0.25031
H          1.67189        2.43125        0.06938
