27
Coordinates from ORCA-job ./opt_b97-3c_parallel
N          4.29354        1.34904       -0.10816
C          3.21710        0.96456       -0.08299
C          1.84769        0.49775       -0.04787
C          0.76502        1.39017       -0.03618
N          0.99878        2.74401       -0.06038
C         -0.56052        0.90905        0.00314
C         -1.62423        1.88382        0.06240
N         -2.69165        2.03313       -0.17098
C         -3.35784        1.17173       -0.34373
C         -3.32694       -0.23502       -0.04921
C         -2.16281       -0.99815        0.09627
N         -2.39863       -2.32288        0.33628
C         -0.84107       -0.48043        0.03122
C          0.29031       -1.31878        0.00232
C          0.46360       -2.72641       -0.05209
C          1.89927       -2.84608       -0.09300
N          2.47412       -1.88142       -0.07754
C          1.57963       -0.86836       -0.03786
H          1.94151        3.06854       -0.24999
H          0.22912        3.36525       -0.28436
H         -1.66680        2.79790        0.64554
H         -4.19857        1.76913       -0.67791
H         -4.31347       -0.68833        0.02187
H         -3.34685       -2.60510        0.55893
H         -1.64658       -2.87443        0.73237
H         -0.24638       -3.54209       -0.12144
H          2.51477       -3.73448       -0.17071
