28
Coordinates from ORCA-job ./opt_b97-3c_parallel
N          1.88536       -3.98686        0.08764
C          1.32416       -2.99186        0.03711
C          0.60097       -1.74294       -0.03211
C         -0.77856       -1.82889       -0.14908
C         -1.63734       -0.67965       -0.15262
C         -3.06366       -0.55533       -0.07287
N         -3.98660       -1.56066       -0.10405
C         -3.26362        0.86128        0.03879
C         -2.03463        1.60446        0.07534
N         -2.15358        2.92817        0.39009
C         -1.00941        0.61184       -0.10041
C          0.44290        0.67298       -0.13309
C          0.97992        1.95812       -0.29661
C          2.37772        2.28592       -0.36904
N          3.32295        1.82358       -0.04170
C          3.44010        0.74625        0.15882
C          2.64023       -0.44635        0.08569
C          1.23743       -0.49177       -0.01949
H         -1.27670       -2.79595       -0.17585
H         -3.68628       -2.49145       -0.37295
H         -4.96575       -1.32175       -0.21700
H         -4.24592        1.31812        0.11147
H         -1.32239        3.42731        0.68801
H         -3.05280        3.27551        0.70365
H          0.35715        2.83879       -0.42039
H          2.83229        3.25968       -0.51256
H          4.46210        0.84986        0.50549
H          3.27190       -1.32630        0.17498
