33
Coordinates from ORCA-job ./opt_b97-3c_parallel
N          5.46454       -2.11220        0.18111
C          4.43726       -1.61655        0.10516
C          3.13988       -0.97589        0.01938
C          3.16616        0.39628        0.23523
C          2.14585        1.34833        0.18947
C          2.67274        2.68128        0.41155
N          3.10306        3.72532        0.58950
C          0.75420        1.15632       -0.00094
C         -0.05304        2.30608       -0.10245
C         -1.42113        2.24825       -0.30763
N         -2.13288        3.40217       -0.47578
C         -2.14410        1.01444       -0.26584
C         -3.53974        0.69953       -0.14915
C         -3.60620       -0.72950       -0.02685
C         -4.97968       -1.11643        0.07612
N         -5.75802       -1.82647        0.52120
C         -2.28057       -1.24879        0.17246
N         -2.24627       -2.51699        0.68114
C         -1.36158       -0.17753       -0.11543
C          0.09788       -0.08635       -0.14082
C          0.69323       -1.34043       -0.31910
C          2.01924       -1.75629       -0.27584
N          2.19259       -3.09935       -0.50656
H          4.16172        0.79428        0.44214
H          0.36844        3.30688       -0.07933
H         -1.66899        4.29337       -0.33564
H         -3.14502        3.37151       -0.42609
H         -4.27845        1.49126       -0.25128
H         -3.11551       -2.95279        0.97113
H         -1.37780       -2.86491        1.07266
H          0.00339       -2.15229       -0.53266
H          1.42044       -3.63839       -0.88308
H          3.13371       -3.45863       -0.63023
