26
Coordinates from ORCA-job ./opt_b97-3c_parallel
N         -4.52864       -0.40470        0.11253
C         -3.38783       -0.33685        0.08207
C         -1.94279       -0.27011        0.04975
C         -1.15170       -1.43329        0.04806
N         -1.75039       -2.66896        0.08013
C          0.25538       -1.34210        0.01590
C          1.02848       -2.55992       -0.03223
N          2.06743       -2.92949       -0.00041
C          2.96267       -2.29652        0.11948
C          3.25618       -0.89048        0.05981
C          2.28584        0.11200        0.01288
C          0.89219       -0.08217        0.00869
C          0.05567        1.03648        0.00110
C          0.35354        2.41987       -0.02269
C          1.22813        3.54941       -0.06020
N          2.30059        3.94211       -0.10426
C         -1.00681        2.91020       -0.01661
N         -1.87613        2.19651        0.00754
C         -1.30633        0.97083        0.01839
H         -2.74449       -2.71926        0.27818
H         -1.18094       -3.47681        0.30712
H          0.83446       -3.45337       -0.61689
H          3.65487       -3.12313        0.23349
H          4.31128       -0.62865        0.07212
H          2.66642        1.12846       -0.00665
H         -1.38414        3.92685       -0.03399
