27
Coordinates from ORCA-job ./opt_b97-3c_parallel
N         -5.40742       -0.75637        0.20965
C         -4.28627       -0.53568        0.17183
C         -2.87790       -0.23614        0.11801
C         -2.14237       -1.47576        0.06673
N         -1.03743       -1.51300        0.03572
C          0.08719       -0.75582        0.01337
C          1.36129       -1.36907       -0.01214
C          1.46811       -2.81282       -0.04775
N          1.56182       -3.95266       -0.08843
C          2.53328       -0.59072       -0.00520
N          3.78525       -1.15024       -0.01794
C          2.38918        0.79422        0.02198
C          3.39352        1.80826        0.03511
N          2.41372        2.37625        0.04521
C          1.36288        2.79859        0.05341
C          1.17507        1.38517        0.03429
C         -0.01444        0.65403        0.02466
N         -1.20895        1.29351        0.01875
C         -2.29488        1.07974       -0.00247
N         -3.02694        2.18532       -0.32911
H         -2.46765       -2.47368        0.33944
H          4.60163       -0.55754       -0.11726
H          3.88429       -2.15149       -0.15218
H          4.47044        1.69741        0.06421
H          0.63302        3.57723        0.23938
H         -2.59302        3.10092       -0.35211
H         -4.03970        2.12935       -0.35061
