28
Coordinates from ORCA-job ./opt_b97-3c_parallel
N          2.91844        3.27400        0.30854
C          3.00359        2.18680       -0.03506
C          2.42614        0.87899       -0.05992
C          3.54134       -0.04227       -0.07411
N          3.38449       -1.15581       -0.07790
C          2.04218       -1.27370       -0.05454
C          1.31269       -2.44485       -0.04607
C         -0.07629       -2.36766       -0.00701
C         -0.78520       -1.13700        0.01287
C         -2.19825       -1.21770        0.07875
N         -2.79899       -2.44580        0.20698
C         -3.14102       -0.18873        0.03865
C         -2.96905        1.18492       -0.05722
N         -4.10644        1.94261       -0.10676
C         -1.77103        1.87674       -0.09092
C         -0.48011        1.37678       -0.06356
C         -0.01551        0.05666       -0.03066
C          1.38334       -0.08267       -0.04591
H          4.60926        0.14695       -0.07521
H          1.81306       -3.41029       -0.06512
H         -0.58821       -3.32469       -0.00439
H         -3.78266       -2.47212        0.45170
H         -2.22834       -3.23148        0.49617
H         -4.18261       -0.50737        0.08487
H         -4.02701        2.91920       -0.36804
H         -4.99167        1.47769       -0.27559
H         -1.84122        2.96184       -0.14349
H          0.26418        2.16492       -0.09409
