25
Coordinates from ORCA-job ./opt_b97-3c_parallel
N         -5.59428       -0.12724       -0.00341
C         -4.45155       -0.10362       -0.00342
C         -3.01157       -0.09246       -0.00315
C         -2.29809       -1.29204       -0.00140
C         -0.90729       -1.45711       -0.00036
C          0.10438       -0.47782       -0.00057
C         -0.12044        0.91614       -0.00185
C          0.96677        1.80426       -0.00107
C          2.28397        1.34354        0.00127
N          3.33210        2.22095        0.00354
C          2.48345       -0.03337        0.00180
C          3.70885       -0.76475        0.00376
N          2.90817       -1.56299        0.00283
C          1.99141       -2.22302        0.00274
C          1.44360       -0.90216        0.00108
N         -1.35178        1.44532       -0.00368
C         -2.42169        1.21284       -0.00457
H         -2.88544       -2.20782       -0.00059
H         -0.59020       -2.49521        0.00087
H          0.77909        2.87611       -0.00181
H          4.28559        1.87638       -0.00184
H          3.16021        3.22013       -0.00304
H          4.72494       -0.39011       -0.00037
H          1.49317       -3.18448       -0.00327
H         -2.91282        2.17895       -0.00495
