26
Coordinates from ORCA-job ./opt_b97-3c_parallel
N          0.82177       -3.06285        1.50051
C          1.02560       -2.04771        1.01534
C          1.30184       -0.79746        0.37036
C          2.66177       -0.60377       -0.10486
N          3.69288       -0.98115       -0.22613
N          3.29021        0.54468       -0.43461
C          2.80753        1.79240       -0.39945
N          1.49372        2.05127       -0.15075
C          0.29700        1.53778        0.08424
N         -0.78452        2.35076        0.18429
C         -2.00248        1.81734        0.40290
C         -2.16844        0.44775        0.53143
C         -3.28453       -0.31470        0.03087
N         -4.33883       -0.14902        0.30986
C         -2.90372       -1.39412       -0.70498
C         -1.58629       -1.47186       -0.66687
C         -1.13301       -0.46110        0.12457
C          0.19584        0.13467        0.12649
H          3.35293       -1.71832        0.38772
H          4.65269       -0.78666        0.05255
H          3.27239        2.76905       -0.60072
H         -2.84687        2.50326        0.38329
H         -4.56402        0.84360        0.31541
H         -5.16668       -0.64014       -0.02138
H         -3.56320       -2.06804       -1.24876
H         -0.97720       -2.22299       -1.16490
