30
Coordinates from ORCA-job ./opt_b97-3c_parallel
N          4.91468        0.57865       -0.79807
C          3.83623        0.31933       -0.51804
C          2.45740       -0.01557       -0.17646
C          2.17270       -1.38520       -0.06166
N          3.18991       -2.29810       -0.22123
C          0.95273       -1.98079        0.22744
C         -0.33534       -1.44856        0.25086
C         -1.32136       -2.44998        0.38624
C         -2.67832       -2.17787        0.30121
C         -3.03779       -0.88042        0.01825
C         -4.30536       -0.39795       -0.25380
C         -4.16161        0.93829       -0.58241
C         -2.81408        1.26231       -0.49532
C         -2.10082        0.13169       -0.07951
C         -0.71031       -0.08647        0.12897
C          0.17460        1.01204        0.28931
C         -0.40825        2.24017        0.81530
N         -0.84093        3.20724        1.24693
C          1.58144        1.05283        0.11204
N          2.17720        2.30105        0.19384
H          2.95268       -3.27587       -0.34626
H          4.07790       -1.97505       -0.59206
H          1.01109       -3.06277        0.34420
H         -1.03796       -3.49029        0.53313
H         -3.42008       -2.96924        0.38040
H         -5.23062       -0.96939       -0.25982
H         -4.95936        1.60820       -0.89324
H         -2.41047        2.23165       -0.77157
H          3.18889        2.35626        0.25002
H          1.63936        3.07659        0.56679
