24
Coordinates from ORCA-job ./opt_b97-3c_parallel
N          4.50410        1.49227       -0.47493
C          3.52520        0.91836       -0.34882
C          2.26991        0.23282       -0.18489
C          2.38140       -1.18014        0.05097
N          1.76746       -2.08139        0.23117
C          0.73175       -2.44218        0.12079
C         -0.23121       -1.38308       -0.01918
C         -1.46493       -2.12377        0.00106
N         -2.66297       -1.52563        0.04225
C         -2.69057       -0.18277        0.05504
N         -3.78271        0.62900        0.08149
C         -3.19874        1.88628        0.04937
C         -1.82506        1.98038        0.02616
C         -1.53430        0.64363        0.00104
C         -0.26293        0.06497       -0.06053
C          0.99080        0.82057       -0.20361
N          0.98621        1.92058       -0.34455
H          3.34413       -1.71235        0.10119
H          1.03481       -3.49906        0.04960
H         -1.84998       -3.15525       -0.00611
H         -3.80515        2.80549        0.05933
H         -1.32088        2.65030        0.71964
H          1.78576        2.37387        0.09878
H          0.89893        2.34496       -1.26758
