27
Coordinates from ORCA-job ./opt_b97-3c_parallel
N          5.22408        0.99475        0.18215
C          4.16290        0.58643        0.07218
C          2.82702        0.07182       -0.02464
C          2.70085       -1.27842       -0.21036
C          1.33493       -1.35180       -0.17641
C          0.58634       -2.56931       -0.24865
N         -0.75168       -2.48187       -0.17494
C         -1.44730       -1.33036       -0.07436
N         -2.82050       -1.51446       -0.04497
C         -3.62542       -0.43875        0.18613
C         -3.69818        0.87616        0.45972
C         -2.69221        1.61304       -0.07971
N         -2.94525        2.66404       -0.30537
C         -1.29240        1.27922       -0.19553
C         -0.71052       -0.05753       -0.06176
C          0.67951       -0.15358       -0.07357
C          1.61291        0.84117        0.06133
N          1.68977        1.93045        0.23927
H          3.32117       -1.98529        0.33592
H          0.94257       -3.60707       -0.33890
H         -4.63478       -0.87774        0.20282
H         -4.64785        1.32331        0.76184
H         -3.86357        3.08413       -0.44936
H         -2.27191        3.33597       -0.67116
H         -0.63543        2.10139       -0.45427
H          1.08602        2.45800        0.86774
H          2.62966        2.30549        0.36520
