31
Coordinates from ORCA-job ./opt_b97-3c_parallel
N          5.84371        0.22670       -0.44581
C          4.75251       -0.06799       -0.27345
C          3.36557       -0.45408       -0.07123
C          3.24764       -1.80797        0.20819
C          2.10274       -2.56243        0.33098
C          0.78755       -2.15554        0.22935
C          0.23529       -0.87096        0.11480
C          0.93646        0.37113        0.06174
C          0.11186        1.53508        0.19849
N          0.55278        2.79963        0.48076
N         -1.23182        1.53399        0.20675
C         -1.85846        0.35990        0.09757
C         -3.29287        0.33958        0.07597
C         -4.29691        1.35720        0.11363
N         -5.36463        1.68265       -0.13530
C         -3.18072       -1.09591       -0.01737
N         -4.35557       -1.76591       -0.22219
C         -2.04764       -1.98431        0.01377
C         -1.17951       -0.83802        0.07901
C          2.34438        0.52184       -0.15080
N          2.80455        1.75099       -0.57266
H          4.17215       -2.37957        0.28773
H          2.25782       -3.62663        0.49508
H          0.11066       -2.99812        0.31896
H         -0.12993        3.48056        0.79422
H          1.50795        2.90655        0.80532
H         -5.18660       -1.22786       -0.44772
H         -4.32871       -2.74201       -0.49481
H         -1.90474       -2.84057       -0.63845
H          3.74908        1.81899       -0.93729
H          2.12486        2.43152       -0.89637
