30
Coordinates from ORCA-job ./opt_b97-3c_parallel
N         -6.06040       -1.26915        0.75441
C         -5.03301       -0.81725        0.54064
C         -3.74540       -0.23343        0.27322
C         -3.49910        1.10693        0.04982
C         -2.12845        1.23221       -0.09272
C         -1.41860        2.39385       -0.25208
C         -0.03210        2.31737       -0.23981
C          0.61124        3.60859       -0.36981
N          1.10955        4.63103       -0.48287
C          0.65969        1.07010       -0.11954
C          2.06029        1.17463        0.02287
C          3.06531        0.22541        0.18512
N          4.31332        0.75722        0.40679
C          2.94457       -1.16023        0.09402
C          4.13174       -1.98333        0.21859
N          5.06272       -2.64066        0.30758
C          1.78679       -1.86574       -0.19103
C          0.46012       -1.44454       -0.29538
C         -0.35504       -2.54406       -0.76815
N         -0.96791       -3.42728       -1.15781
C         -0.09417       -0.14625       -0.12751
C         -1.50576        0.00262       -0.01541
C         -2.53440       -0.91114        0.25762
H         -4.23249        1.90973        0.03815
H         -1.93501        3.34988       -0.32528
H          2.47471        2.17538        0.07813
H          4.42911        1.75824        0.52196
H          5.10488        0.14340        0.57127
H          1.95003       -2.93626       -0.33617
H         -2.44640       -1.96665        0.49023
