30
Coordinates from ORCA-job ./opt_b97-3c_parallel
N         -2.66795        2.91769       -1.65375
C         -1.78721        2.42962       -1.11253
C         -0.65419        1.81506       -0.45033
C          0.44082        2.65874       -0.32312
C          1.62229        2.11299        0.12093
C          2.84563        2.80370        0.36833
N          3.06760        1.71279        0.52918
C          3.13796        0.59595        0.63510
C          1.77269        0.77132        0.22813
C          0.72148       -0.16038       -0.01582
C          1.03766       -1.53921       -0.20920
C          2.43081       -1.92146       -0.39771
N          3.51429       -2.25013       -0.55960
C          0.14393       -2.61108       -0.41710
N          0.62439       -3.85306       -0.77130
C         -1.22438       -2.63087       -0.20886
C         -2.07064       -1.61563        0.19314
N         -3.33485       -2.06811        0.49794
C         -1.79472       -0.23772        0.22260
C         -2.85220        0.56003        0.83430
N         -3.68120        1.17104        1.33095
C         -0.58145        0.42439       -0.11536
H          0.37327        3.72081       -0.55227
H          3.04090        3.86930        0.34892
H          3.54463       -0.04337        1.41027
H          1.61092       -3.97580       -0.97830
H         -0.01636       -4.62109       -0.93602
H         -1.69572       -3.60969       -0.31346
H         -3.48963       -3.06362        0.61361
H         -4.00129       -1.42658        0.91629
