30
Coordinates from ORCA-job ./opt_b97-3c_parallel
N         -5.68145       -1.43883       -0.83578
C         -4.76234       -1.65148       -0.18890
C         -3.47231       -1.09856        0.08049
C         -2.34100       -1.94618        0.31501
C         -1.09358       -1.34771        0.31072
C          0.07465       -2.06934        0.43935
C          1.31308       -1.44609        0.28098
C          2.41112       -2.32686        0.62337
N          3.26178       -3.03084        0.91900
C          1.45139       -0.04541        0.00673
C          2.70337        0.47372       -0.43160
C          3.67583       -0.37410       -1.09459
N          4.44741       -1.01993       -1.63641
C          3.13487        1.80044       -0.47299
C          2.50563        2.94984       -0.04060
C          1.20462        3.09196        0.39174
C          0.19451        2.13743        0.42329
C         -1.07406        2.70632        0.83333
N         -2.06411        3.16734        1.17132
C          0.28195        0.74811        0.18178
C         -0.99684        0.06183        0.15377
C         -2.37657       -0.19860       -0.18619
N         -2.89336        0.76908       -1.00473
H         -2.43540       -3.02458        0.42935
H          0.02070       -3.13933        0.63777
H          4.13907        1.97830       -0.85957
H          3.09475        3.86312       -0.08712
H          0.93201        4.11049        0.66715
H         -3.90001        0.79421       -1.13149
H         -2.39678        1.65095       -1.07046
