32
Coordinates from ORCA-job ./opt_b97-3c_parallel
N          4.12378        2.58254       -0.35107
C          3.45058        1.66223       -0.26075
C          2.58304        0.49722       -0.13514
C          3.17923       -0.66262        0.38170
N          4.47218       -0.61135        0.84755
C          2.65903       -1.94815        0.32948
C          1.39865       -2.39635       -0.05038
N          1.33134       -3.76676       -0.11292
C          0.22878       -1.62823       -0.22231
C         -0.98240       -2.35276       -0.34329
N         -2.21473       -1.81619       -0.42385
C         -2.28365       -0.48336       -0.33728
C         -3.56701        0.18179       -0.25411
C         -4.91410       -0.14868        0.08667
N         -6.04014       -0.13687        0.28205
C         -3.04724        1.48672        0.10056
C         -1.66557        1.56843        0.10808
C         -0.97281        2.69995        0.67579
N         -0.43715        3.60007        1.13308
C         -1.16756        0.31628       -0.21709
C          0.14851       -0.21225       -0.27133
C          1.23465        0.65777       -0.51571
N          0.95630        1.76087       -1.29384
H          4.84364       -1.41106        1.34818
H          4.88882        0.29693        1.02573
H          3.36339       -2.73391        0.60504
H          2.20047       -4.28951       -0.12236
H          0.52891       -4.19227       -0.56293
H         -1.01596       -3.43901       -0.34771
H         -3.64934        2.33162        0.42855
H          1.65526        2.49172       -1.38370
H         -0.00600        1.98528       -1.51780
