32
Coordinates from ORCA-job ./opt_b97-3c_parallel
N         -5.58665       -0.00554       -0.52870
C         -4.49353       -0.26987       -0.32333
C         -3.10575       -0.62183       -0.07244
C         -2.97894       -1.92984        0.36976
C         -1.82582       -2.66093        0.53818
C         -0.51831       -2.25884        0.35297
C          0.02606       -0.98181        0.14121
C         -0.68972        0.24747        0.02743
C         -2.09083        0.34554       -0.25371
N         -2.54360        1.49729       -0.86335
C          0.08370        1.44843        0.15689
N         -0.49268        2.67303        0.41426
C          1.48687        1.43367        0.16463
C          2.26637        2.65262        0.27131
N          2.88894        3.60723        0.36149
C          2.14894        0.22148        0.06818
C          3.58084        0.09741        0.05428
C          3.50168       -1.33464       -0.05492
N          4.66593       -1.98380       -0.35059
C          2.29386       -2.11366        0.01643
C          1.43802       -0.95588        0.07886
H         -3.89808       -2.49263        0.52998
H         -1.96659       -3.70506        0.80906
H          0.16298       -3.09091        0.49287
H         -1.87095        2.18553       -1.18514
H         -3.49568        1.54284       -1.21155
H          0.09873        3.43598        0.72664
H         -1.47777        2.70052        0.65787
H          4.26921        0.74681       -0.47850
H          4.62447       -2.95117       -0.65262
H          5.47889       -1.43602       -0.61153
H          2.09788       -3.00876       -0.56625
