28
Coordinates from ORCA-job ./opt_b97-3c_parallel
N         -4.74611       -1.75350        0.04151
C         -3.70306       -1.29347       -0.03543
C         -2.36437       -0.73973       -0.10367
C         -2.40921        0.69455       -0.06915
C         -1.35167        1.65529       -0.22759
C         -1.90096        2.99787       -0.28162
N         -2.30388        4.06627       -0.30739
C          0.02819        1.39745       -0.28829
N          0.61096        2.32530       -0.47228
C          0.74620        0.12563       -0.13992
C          0.15761       -1.14233       -0.14046
C          1.04196       -2.31512       -0.09492
N          2.37974       -2.30046       -0.01939
C          2.87549       -1.02999        0.02641
N          4.18076       -0.80742        0.11312
C          4.24333        0.57393        0.12564
C          3.06692        1.27736        0.08876
C          2.21311        0.21165       -0.01800
C         -1.19547       -1.50524       -0.18526
N         -1.44825       -2.59310       -0.25531
H         -3.40976        1.11948        0.00519
H          0.77739        2.43989       -1.47198
H          0.30931        3.23905       -0.13184
H          1.11831       -3.41449       -0.08147
H          5.20372        1.10837        0.19244
H          2.88988        2.06699        0.81660
H         -2.20576       -2.99608        0.29815
H         -1.62790       -2.87339       -1.21949
