28
Coordinates from ORCA-job ./opt_b97-3c_parallel
N         -4.79665       -2.19883        0.21325
C         -3.67332       -2.03322        0.08692
C         -2.62043       -1.06957        0.01250
C         -1.18795       -1.12703        0.02596
C         -0.50160        0.08006        0.00201
C         -1.33237        1.25014       -0.03654
C         -0.68256        2.52497       -0.07805
C          0.70323        2.59968       -0.05693
C          1.50659        1.45305       -0.00472
C          2.89225        1.69744        0.02709
C          3.95545        0.78984        0.09864
C          3.87890       -0.60024        0.13239
C          2.66097       -1.34940        0.06734
N          2.64392       -2.70663       -0.06268
N          1.64388       -0.94432        0.04993
C          0.90298        0.17733        0.01748
C         -2.46467        0.36199       -0.00617
N         -3.52519        1.22616       -0.01357
H         -0.67151       -2.08319        0.05800
H         -1.27869        3.43311       -0.11900
H          1.16144        3.58572       -0.08025
H          3.20111        2.74051        0.00601
H          4.95449        1.21755        0.13292
H          4.79413       -1.18409        0.19790
H          1.77484       -3.18112       -0.27662
H          3.51241       -3.20674       -0.21700
H         -4.45388        0.85929        0.16673
H         -3.35700        2.21135        0.15710
