28
Coordinates from ORCA-job ./opt_b97-3c_parallel
N         -2.90870       -2.72166       -0.49217
C         -2.58842       -1.64112       -0.30686
C         -2.26900       -0.27036       -0.06864
C         -3.15363        0.77110        0.04791
N         -4.24910        0.93962        0.00441
N         -2.61045        1.97278        0.30603
C         -1.23967        1.75163        0.37678
N         -0.18607        2.61624        0.65260
C          1.10057        2.09936        0.67470
C          1.42581        0.72955        0.36559
C          2.77489        0.65079       -0.16126
N          3.65429        1.29519       -0.34476
N          3.15356       -0.33283       -0.50884
C          2.93221       -1.41206       -0.67470
C          1.93087       -2.07295       -0.01366
C          0.64516       -1.58998       -0.10759
N          0.24829       -2.58347       -0.37835
C          0.33727       -0.20033        0.15381
C         -0.99653        0.35763        0.13472
H         -4.79620        0.07577       -0.02286
H         -4.93805        1.69176       -0.06059
H          1.80790        2.91184        0.90536
H          4.02601        1.33480       -1.29340
H          4.44204        1.06862        0.26144
H          3.89496       -1.94309       -0.61335
H          2.22520       -2.67085        0.85520
H          0.05840       -3.46682        0.09587
H          0.51312       -2.82967       -1.33293
