28
Coordinates from ORCA-job ./opt_b97-3c_parallel
N          4.82626        1.12088       -0.21676
C          3.75945        1.40875        0.07679
C          2.35166        1.16930        0.05468
C          1.55975        2.37714        0.04246
N          0.43786        2.29794        0.02269
C          0.14371        0.97781        0.00226
C          1.28589        0.24072        0.02230
C          1.30127       -1.14433        0.02209
C          2.56296       -1.84824        0.07135
N          3.55780       -2.40930        0.12428
C          0.06541       -1.80919       -0.01896
N          0.07050       -3.18319        0.00566
C         -1.15256       -1.07866       -0.06274
C         -2.36250       -1.80949       -0.14692
C         -3.66155       -1.29912       -0.14795
C         -3.99585        0.08649        0.01071
N         -3.43008        1.03244        0.03906
C         -2.33415        1.12437       -0.04129
N         -2.44135        2.48236       -0.19457
C         -1.10941        0.34248       -0.03540
H          1.87769        3.41367        0.04586
H          0.94136       -3.65701        0.22276
H         -0.79336       -3.66750        0.22176
H         -2.32287       -2.89111       -0.23025
H         -4.51282       -1.97032       -0.23506
H         -4.91445        0.51863        0.39118
H         -1.59987        3.04744       -0.15657
H         -3.32515        2.94374       -0.00862
