28
Coordinates from ORCA-job ./opt_b97-3c_parallel
N         -0.45750        4.20472       -0.12169
C         -0.07601        3.12983       -0.07497
C          0.34182        1.76337       -0.02652
C          1.76929        1.51081        0.00606
C          2.21323        0.15202        0.07089
C          3.50718       -0.28772        0.14854
N          4.58377       -0.03610        0.19580
N          3.40640       -1.67847        0.18274
C          2.05729       -2.04973        0.12405
C          1.29832       -0.83749        0.05006
C         -0.07774       -0.66536       -0.01115
C         -0.90340       -1.87542       -0.06676
C         -2.30012       -1.98355       -0.10031
N         -2.94551       -2.88475       -0.15613
N         -3.30048       -1.01005        0.00099
C         -3.00705        0.33757        0.05595
N         -3.78803        1.11063        0.17545
N         -1.85143        0.88182       -0.07651
C         -0.58668        0.63250       -0.03635
H          2.45994        2.28701       -0.32156
H          5.37769       -0.66925        0.31383
H          5.00143        0.89419        0.13495
H          2.42984       -3.08573        0.17480
H         -0.36619       -2.81981       -0.09303
H         -3.95108       -3.06699       -0.09405
H         -2.55020       -3.79657       -0.39716
H         -3.66988        2.12506        0.22009
H         -4.78768        0.95941        0.32406
