28
Coordinates from ORCA-job ./opt_b97-3c_parallel
N         -2.70737        2.85862        0.79384
C         -2.47636        1.77209        0.53307
C         -2.23534        0.40366        0.20002
C         -3.10826       -0.62192       -0.06440
N         -4.21252       -0.72958       -0.10434
N         -2.54282       -1.81039       -0.34949
C         -1.16700       -1.60516       -0.27803
N         -0.06069       -2.43682       -0.46560
C          1.21469       -1.90223       -0.30088
N          1.81487       -2.80702       -0.51971
C          1.44738       -0.52258        0.07307
C          2.80666       -0.04038        0.15235
N          3.36201       -0.46417        1.01074
C          3.31178        0.87386       -0.72567
C          2.62929        2.02560       -0.47206
N          1.50524        2.61032        0.07662
C          0.52597        1.74885        0.54358
C          0.35973        0.34471        0.22621
C         -0.95936       -0.22921        0.06257
H         -4.91601       -1.46908       -0.03769
H         -4.75412        0.13882       -0.12458
H          2.00906       -3.81069       -0.52940
H          2.73594       -2.36187       -0.52544
H          3.69285        0.48120        1.21072
H          3.84108       -1.06525        1.68199
H          4.37138        0.89963       -0.97845
H          3.14259        2.97339       -0.69967
H          0.33926        2.82744        0.67214
