33
Coordinates from ORCA-job ./opt_b97-3c_parallel
N         -5.83523       -0.35541       -0.36530
C         -4.73601       -0.07452       -0.22465
C         -3.34353        0.29802       -0.04940
C         -3.19192        1.59884        0.39153
C         -2.03841        2.34759        0.42693
C         -0.72623        1.98394        0.14612
N          0.06369        3.10465        0.14148
C         -0.17867        0.67534        0.01523
C         -0.93405       -0.54693       -0.00670
C         -0.22214       -1.77744        0.18876
N         -0.81640       -2.96748        0.52858
C          1.16197       -1.84122        0.17360
C          1.84893       -0.67313       -0.02535
C          3.24615       -0.46356       -0.09539
C          4.30417       -1.42490       -0.07848
N          5.12410       -2.19672        0.11788
C          3.22620        0.97426       -0.21207
N          4.37707        1.69593       -0.34206
N          2.22084        1.46902       -0.19387
C          1.23952        0.54088       -0.07621
C         -2.32898       -0.64616       -0.28890
N         -2.76716       -1.77983       -0.94249
H         -4.10094        2.15448        0.61952
H         -2.21484        3.39651        0.66554
H         -0.38105        4.01477        0.10168
H          1.01517        3.03006       -0.19993
H         -1.79582       -2.95670        0.79336
H         -0.23632       -3.72040        0.88220
H          1.69191       -2.78177        0.31229
H          4.32648        2.68274       -0.56868
H          5.25955        1.21652       -0.48289
H         -2.12178       -2.54623       -1.10289
H         -3.75896       -1.92589       -1.09828
