33
Coordinates from ORCA-job ./opt_b97-3c_parallel
N          5.56374       -0.62118        1.11194
C          4.46293       -0.53548        0.81740
C          3.06594       -0.44320        0.43444
C          2.40419       -1.65749        0.48202
C          1.09404       -1.96770        0.17051
C         -0.01681       -1.14126       -0.07617
C         -1.26684       -1.81117       -0.22551
C         -1.39093       -3.25774       -0.28373
N         -1.49055       -4.39496       -0.34466
C         -2.45506       -1.09576       -0.37094
N         -3.68730       -1.66349       -0.56585
C         -2.47322        0.32156       -0.27607
C         -3.21853        1.44833        0.22493
N         -4.54408        1.30333        0.52109
C         -2.72076        2.77398        0.47398
C         -1.38410        2.26748        0.40389
C         -1.21557        0.96636       -0.06599
C          0.02944        0.28024       -0.15080
C          1.20398        1.05590       -0.37794
C          1.02506        2.27425       -1.16224
N          0.90023        3.22430       -1.78641
C          2.55409        0.76035       -0.06872
N          3.48491        1.76812       -0.24354
H          3.00454       -2.51883        0.77469
H          0.94539       -3.03929        0.24161
H         -4.45813       -1.06283       -0.83735
H         -3.73685       -2.64663       -0.81194
H         -4.92488        0.36526        0.58577
H         -5.01767        2.04590        1.02360
H         -3.08572        3.47506        1.21798
H         -0.56721        2.87072        0.79177
H          4.47187        1.53833       -0.18747
H          3.21817        2.60066       -0.75856
