28
Coordinates from ORCA-job ./opt_b97-3c_parallel
N          5.54522        0.02184       -0.22914
C          4.41618       -0.13805       -0.14695
C          2.98597       -0.31893       -0.03133
C          2.66814       -1.66792        0.35662
N          1.80451       -2.33034        0.17545
C          0.82554       -1.95864       -0.17246
C          0.04535       -0.74984       -0.06345
C          0.63478        0.54645       -0.03322
C         -0.24848        1.65993        0.11818
N          0.16880        2.94269        0.35343
C         -1.63362        1.49010        0.14329
C         -2.13720        0.21018        0.04386
C         -3.46652       -0.25722        0.04410
C         -4.74234        0.38426        0.09545
N         -5.40565        1.31628        0.10895
C         -3.15442       -1.66600       -0.05389
N         -2.08334       -2.02032       -0.09474
C         -1.34640       -0.88837       -0.03784
C          2.04495        0.71827       -0.17818
N          2.56362        1.93380       -0.55301
H          3.33440       -2.43560        0.73512
H          0.47804       -2.98241       -0.26368
H         -0.52071        3.62066        0.65844
H          1.11995        3.06894        0.68554
H         -2.30634        2.33797        0.25718
H         -3.82668       -2.51479       -0.10673
H          1.91555        2.62227       -0.92223
H          3.51304        1.95456       -0.91035
