26
Coordinates from ORCA-job ./opt_b97-3c_parallel
N          0.34873       -4.01853       -0.00588
C          0.09366       -2.90362       -0.00959
C         -0.24282       -1.49351       -0.00535
C         -1.59806       -1.14993       -0.01027
N         -2.62039       -2.06095       -0.03459
C         -2.02214        0.21386       -0.00003
C         -3.19447        1.06330        0.00038
C         -2.87309        2.40493        0.00043
C         -1.50721        2.50963        0.00085
C         -0.98186        1.22204        0.00079
C          0.38461        0.88231        0.00195
C          1.32380        1.92898        0.00269
C          2.75458        1.79364        0.00099
N          3.52442        1.00616       -0.00022
C          3.26760       -0.06471        0.00422
C          2.10334       -0.90626        0.00269
C          0.75642       -0.49111        0.00079
H         -3.58153       -1.74542        0.03071
H         -2.41437       -3.05286        0.02115
H         -4.23493        0.74852        0.00000
H         -3.58001        3.23105        0.00004
H         -0.96599        3.45067        0.00105
H          1.06804        2.98293        0.00272
H          3.50282        2.57864       -0.00058
H          4.30891       -0.36841       -0.00036
H          2.43325       -1.94162        0.00181
