32
Coordinates from ORCA-job ./opt_b97-3c_parallel
N         -5.61041       -1.16082       -0.48393
C         -4.49160       -1.01697       -0.29331
C         -3.07885       -0.82119       -0.06017
C         -2.48987       -2.01906        0.47666
N         -1.47844       -2.45500        0.40327
C         -0.62773       -1.92238       -0.05324
C         -0.12304       -0.57091       -0.00139
C         -0.98493        0.55698       -0.05770
C         -2.39283        0.39318       -0.25657
N         -3.16462        1.42362       -0.73660
C         -0.37779        1.84251        0.05517
N         -1.11851        2.99376        0.18312
C          1.01995        1.98031        0.13560
C          1.64435        3.28386        0.24952
N          2.14784        4.30606        0.34089
C          1.82949        0.84752        0.10810
C          3.26314        0.89999        0.15239
C          3.27054       -0.53592        0.02120
N          4.61847       -0.76440       -0.05338
C          2.19903       -1.50637        0.01482
C          2.45363       -2.79667       -0.54916
N          2.50384       -3.91701       -0.32879
C          1.26754       -0.40880        0.04976
H         -2.94581       -2.76672        1.11616
H         -0.18030       -2.83486        0.32978
H         -2.68808        2.22115       -1.14468
H         -4.09170        1.20464       -1.08672
H         -2.10477        2.90359        0.40426
H         -0.64593        3.83975        0.48421
H          3.87351        1.60681       -0.40436
H          5.24035        0.01812       -0.22484
H          4.93634       -1.69016       -0.32152
