28
Coordinates from ORCA-job ./opt_b97-3c_parallel
N          3.35269       -3.10521        0.09471
C          2.75436       -2.13135        0.06826
C          1.98007       -0.90560        0.03742
C          0.60221       -1.10748       -0.00336
C         -0.46519       -0.20030       -0.01368
C         -0.40121        1.21581        0.00624
C         -1.63598        1.91418        0.04296
N         -2.86296        1.35272        0.02620
C         -2.89517        0.01664       -0.02932
C         -4.14079       -0.71424       -0.07985
C         -3.57432       -2.04874       -0.13048
C         -2.18948       -2.06381       -0.10921
C         -1.75807       -0.75676       -0.04665
C          0.77196        2.00184       -0.01632
N          0.66208        3.36909       -0.08633
C          2.10346        1.58786        0.00309
C          2.66269        0.31617        0.04222
N          4.03631        0.30821        0.06934
H          0.32909       -2.15705       -0.01240
H         -1.68966        2.99822        0.09723
H         -5.06978       -0.42437        0.40098
H         -4.12962       -2.98116       -0.19115
H         -1.58278       -2.96359       -0.14898
H         -0.22816        3.76529       -0.36548
H          1.49466        3.90336       -0.30914
H          2.83407        2.39739       -0.01046
H          4.55093        1.18050        0.11841
H          4.53723       -0.57102        0.14773
