30
Coordinates from ORCA-job ./opt_b97-3c_parallel
N          5.07890        1.70143       -0.64356
C          4.38339        1.11696        0.05171
C          3.14030        0.47123        0.34809
C          2.74683       -0.91002        0.37098
N          3.67992       -1.91379        0.36979
C          1.38258       -1.16734        0.32762
C          0.84906       -2.44685        0.20387
N         -0.46906       -2.67286        0.03905
C         -1.35337       -1.64569        0.02834
C         -2.68720       -2.02168       -0.16373
C         -3.80853       -1.12771       -0.24353
N         -4.00686       -0.05012       -0.10812
C         -3.23920        0.71048        0.11390
N         -4.00162        1.75262       -0.34738
C         -1.81522        0.78899        0.35276
C         -1.36938        2.08163        0.82383
N         -1.02017        3.09879        1.21210
C         -0.93681       -0.30556        0.23443
C          0.48554       -0.04806        0.35861
C          1.72774        0.64024        0.09393
N          1.46943        1.77584       -0.62701
H          3.37857       -2.86690        0.20113
H          4.64915       -1.67805        0.18461
H          1.47917       -3.33360        0.18059
H         -2.96128       -3.06582       -0.29999
H         -4.71274       -1.24016       -0.83154
H         -3.65052        2.70038       -0.26089
H         -5.00018        1.62953       -0.47319
H          2.21926        2.44984       -0.74195
H          0.51894        2.12968       -0.64423
