26
Coordinates from ORCA-job ./opt_b97-3c_parallel
N          4.15409       -1.08929        0.07579
C          2.90755       -0.56183       -0.11909
C          2.98405        0.87635       -0.22808
C          1.55473        0.84793       -0.17945
N          0.86432        2.00399       -0.15638
C         -0.48329        1.92599       -0.09299
N         -1.09954        3.14548       -0.08359
C         -1.19629        0.70792       -0.04514
C         -2.60373        0.73167        0.05791
C         -3.44450       -0.38026        0.14369
C         -2.99199       -1.74438        0.13296
N         -2.03754       -2.28117       -0.00041
C         -1.05506       -1.78875       -0.09029
C         -0.44196       -0.48401       -0.09333
C          0.95183       -0.39327       -0.15432
C          1.83351       -1.52407       -0.18514
H          4.91893       -0.46343        0.30451
H          4.23827       -2.06414        0.34167
H          3.62404        1.51807        0.36958
H         -0.53874        3.96108       -0.30331
H         -2.09130        3.18631       -0.28635
H         -3.11001        1.69154        0.09280
H         -4.51952       -0.24586        0.23549
H         -3.58805       -2.64987        0.15714
H         -0.73023       -2.68536       -0.60702
H          1.75308       -2.41178        0.43430
