28
Coordinates from ORCA-job ./opt_b97-3c_parallel
N         -2.42424        3.32029       -0.02624
C         -1.64134        2.48822       -0.02535
C         -0.64175        1.44995       -0.01848
C          0.70021        1.81508       -0.01397
C          1.73516        0.86813       -0.00178
C          3.00766        1.45288       -0.00310
C          4.26653        0.87004        0.00308
C          4.59123       -0.47378        0.00702
C          3.72461       -1.55292        0.01441
C          2.33386       -1.56748        0.02506
C          1.40915       -0.50967        0.01851
C          0.03531       -0.85551        0.03207
C         -0.50846       -2.18510        0.12432
C         -1.89151       -1.78746        0.02889
N         -2.76196       -2.84516       -0.00125
C         -2.31683       -0.40328        0.00590
C         -3.68261       -0.01123       -0.14402
N         -4.77038        0.22699        0.11796
C         -0.96547        0.09776        0.00063
H          0.93548        2.87808       -0.01944
H          3.04430        2.54077       -0.00868
H          5.10740        1.56005        0.00104
H          5.65309       -0.70935        0.00500
H          4.20204       -2.53056        0.01502
H          1.94424       -2.57709        0.03306
H         -0.07370       -3.12599       -0.19547
H         -3.75359       -2.65997        0.11669
H         -2.42313       -3.77763        0.20763
