29
Coordinates from ORCA-job ./opt_b97-3c_parallel
N         -3.00406       -3.26855       -0.35826
C         -2.57083       -2.21584       -0.25071
C         -2.00809       -0.88485       -0.12421
C         -0.61407       -0.85427       -0.14080
C          0.30672        0.20171       -0.06869
C         -0.01083        1.58639       -0.01649
C          1.06867        2.50018       -0.09431
N          2.36947        2.17523       -0.20016
C          2.65194        0.86995       -0.19358
C          4.02598        0.42921       -0.25407
C          3.76448       -0.98167       -0.08848
C          2.41914       -1.30090       -0.01054
C          1.99487       -2.64940        0.27429
N          1.67383       -3.72086        0.50932
C          1.69127       -0.11768       -0.09819
C         -1.29814        2.15983        0.10687
N         -1.41961        3.52111        0.24996
C         -2.54269        1.53407        0.12298
C         -2.88557        0.19534        0.00342
N         -4.23899       -0.04176        0.01000
H         -0.19892       -1.83643       -0.28448
H          0.92562        3.57726       -0.09916
H          4.89310        0.96363        0.12014
H          4.52396       -1.75482        0.00522
H         -0.59887        4.05526        0.51085
H         -2.32230        3.89553        0.52108
H         -3.39484        2.20664        0.22843
H         -4.87104        0.74142       -0.11340
H         -4.56991       -0.96395       -0.25508
