26
Coordinates from ORCA-job ./opt_b97-3c_parallel
N         -6.08215       -0.75779       -0.00417
C         -4.98036       -0.45447       -0.00369
C         -3.59844       -0.05529       -0.00228
C         -3.14188        1.25675       -0.00025
C         -1.75982        1.18978        0.00160
C         -0.82392        2.20572        0.00463
N          0.49449        1.91212        0.00687
C          0.93358        0.61467        0.00592
C          2.33187        0.41501        0.00869
C          3.25620        1.53237        0.01379
N          3.99715        2.40377        0.01811
C          2.96163       -0.89012        0.00754
N          4.31509       -1.11643        0.00365
N          2.70953       -1.96396        0.00614
C          1.67529       -2.34775        0.00310
C          0.33773       -1.82514        0.00114
C          0.00028       -0.46434        0.00231
C         -1.35889       -0.12571        0.00058
C         -2.50431       -0.91628       -0.00190
H         -3.75011        2.15823        0.00019
H         -1.09874        3.25865        0.00560
H          4.96347       -0.33616        0.01047
H          4.68623       -2.05994        0.00956
H          1.99427       -3.38394        0.00045
H         -0.40960       -2.61347       -0.00153
H         -2.55247       -2.00207       -0.00290
