34
Coordinates from ORCA-job ./opt_b97-3c_parallel
N         -4.67476        1.53300       -2.03500
C         -3.92103        1.11263       -1.28663
C         -2.99973        0.54218       -0.34895
C         -2.22691        1.39112        0.40053
N         -2.82000        2.48434        0.91589
C         -0.96058        1.11566        0.68739
C         -0.27861        0.00468        0.26744
C         -0.82278       -1.34954        0.35556
N         -2.15061       -1.61278        0.37470
C         -3.19314       -0.82957        0.02292
N         -3.62250       -1.84694        0.03156
N         -0.01192       -2.48200        0.38570
C          1.34015       -2.32868        0.17749
N          1.79082       -3.33161        0.29511
C          1.86088       -1.07827       -0.28573
C          3.17843       -0.50803       -0.20380
N          4.01183       -1.23576       -0.21002
C          3.01146        0.90530       -0.10549
C          4.13878        1.77494        0.05287
N          5.05835        2.43899        0.18553
C          1.73524        1.37984       -0.17495
N          1.37209        2.55155       -0.72616
C          1.13732        0.15016       -0.06051
H         -2.42729        2.98957        1.70994
H         -3.83361        2.59995        0.91819
H         -0.43308        1.81419        1.33673
H         -3.92073       -2.69613       -0.44843
H         -4.46424       -1.28313        0.15186
H          1.81143       -4.33125        0.50399
H          2.77172       -3.04827        0.22058
H          4.55860       -1.39386       -1.05902
H          4.61342       -0.67624        0.39779
H          0.64514        2.60227       -1.43836
H          2.07745        3.25423       -0.95296
