30
Coordinates from ORCA-job ./opt_b97-3c_parallel
N         -4.20522       -2.05723       -0.22246
C         -3.34675       -1.30869       -0.11576
C         -2.25119       -0.34858        0.00014
C         -2.65115        0.96729        0.28456
N         -3.97796        1.24851        0.51525
C         -1.85164        2.09500        0.29857
C         -0.49296        2.22251        0.09164
C          0.51358        1.25502       -0.04492
C          1.83554        1.77662       -0.16449
N          2.11558        3.11441       -0.28480
C          2.95363        0.95120       -0.16682
C          2.77543       -0.40466       -0.02111
N          3.75219       -1.32918        0.08179
C          3.24179       -2.31435        0.24767
C          1.80136       -2.29573        0.25125
C          1.51501       -0.91844        0.03150
C          0.31633       -0.15742       -0.04564
C         -0.92986       -0.84069       -0.16158
N         -0.86390       -2.15966       -0.55451
H         -4.67103        0.52740        0.34182
H         -4.28321        2.21512        0.53184
H         -2.36273        3.04109        0.47255
H         -0.20279        3.26711        0.11981
H          1.36048        3.74701       -0.52346
H          3.05598        3.38625       -0.54999
H          3.95788        1.36427       -0.23726
H          3.92026       -3.13500        0.44755
H          1.16290       -3.12609        0.53302
H          0.00228       -2.49525       -0.96016
H         -1.72151       -2.62349       -0.83571
