26
Coordinates from ORCA-job ./opt_b97-3c_parallel
N          4.25766        1.19111       -0.03382
C          3.04920        0.55672       -0.00549
C          2.94414       -0.88351       -0.05679
C          1.52082       -0.99979       -0.01269
C          0.83053       -2.19832       -0.00854
C         -0.55597       -2.15966        0.00110
C         -1.27038       -0.94793        0.00434
C         -2.65911       -1.12603       -0.00043
C         -3.68539       -0.19170       -0.00358
C         -3.59661        1.18903        0.00078
C         -2.44947        1.96387        0.00915
C         -1.11915        1.56218        0.01354
C         -0.55663        0.27675        0.00948
C          0.85451        0.20117        0.00501
C          1.79957        1.28445        0.00787
H          5.08819        0.64771       -0.24141
H          4.28039        2.18772       -0.21974
H          3.70485       -1.64075        0.10497
H          1.36079       -3.14892       -0.01816
H         -1.08571       -3.11020       -0.00128
H         -3.01641       -2.15395       -0.00563
H         -4.69400       -0.59854       -0.00930
H         -4.53980        1.72981       -0.00273
H         -2.61338        3.03964        0.01242
H         -0.44316        2.40666        0.01948
H          1.64999        2.35844        0.00499
