33
Coordinates from ORCA-job ./opt_b97-3c_parallel
N         -5.42192       -2.63972        0.62069
C         -4.53950       -1.94423        0.40959
C         -3.41983       -1.06667        0.16405
C         -3.73805        0.26844       -0.01845
C         -2.87175        1.32423       -0.24563
C         -3.49639        2.60682       -0.46601
N         -3.99357        3.61799       -0.65516
C         -1.48000        1.30963       -0.23292
C         -0.55931        0.25673       -0.07860
C         -0.87148       -1.12624       -0.04349
C         -2.16690       -1.67045        0.09493
C          0.19584       -2.06253       -0.12003
N         -0.03947       -3.41517       -0.22620
C          1.53465       -1.64609       -0.11828
C          2.61318       -2.60915       -0.22861
N          3.45399       -3.37674       -0.32773
C          1.82481       -0.29099        0.00814
C          3.17049        0.21590        0.11700
C          4.39058       -0.11537        0.79211
N          5.45062       -0.28201        0.39500
C          2.61394        1.54227       -0.00487
N          3.53338        2.51696       -0.29366
C          1.25761        1.99873        0.17991
C          0.99513        2.97429        1.19747
N          0.61702        4.03912        1.01787
C          0.80134        0.63911        0.01540
H         -4.79990        0.51657        0.00958
H         -1.06438        2.29741       -0.40316
H         -2.24159       -2.74741        0.21554
H          0.73932       -4.02434       -0.45574
H         -0.97017       -3.73158       -0.47371
H          3.26820        3.48201       -0.12485
H          4.51558        2.28317       -0.18489
