30
Coordinates from ORCA-job ./opt_b97-3c_parallel
N         -5.45826       -2.63563        0.00019
C         -4.53518       -1.96158       -0.00087
C         -3.38281       -1.09724       -0.00142
C         -3.54220        0.28907        0.00064
C         -2.54517        1.27485        0.00150
C         -1.13148        1.15238        0.00000
C         -0.35985        2.33942        0.00083
C         -0.93403        3.66624       -0.00037
N         -1.37463        4.72055       -0.00179
C          1.02856        2.29585        0.00355
C          1.72226        1.04879        0.01091
C          2.95626        0.30868        0.02247
N          3.94780        1.24802        0.10311
C          3.16732       -1.11662       -0.01445
C          4.36839       -1.89066       -0.01192
N          5.47993       -2.15625       -0.04817
C          1.74407       -1.30497       -0.02637
N          1.30331       -2.60086       -0.07627
C          0.94755       -0.15565       -0.00693
C         -0.46563       -0.09787       -0.00499
N         -1.18275       -1.23115       -0.00490
C         -2.12675       -1.78379       -0.00332
H         -4.56667        0.65633        0.00204
H         -2.97211        2.27244        0.00388
H          1.62032        3.20903        0.00368
H          3.71923        2.22402       -0.04921
H          4.91071        0.95406       -0.02604
H          0.31389       -2.79015        0.04044
H          1.96637       -3.35915        0.04265
H         -1.93839       -2.85102       -0.00399
