33
Coordinates from ORCA-job ./opt_b97-3c_parallel
N         -0.17176       -3.21913       -1.36762
C         -0.54494       -2.23043       -0.92995
C         -1.04854       -0.97332       -0.39417
C         -2.44863       -0.92285       -0.21652
N         -3.18987       -2.06921       -0.39121
C         -3.23187        0.15837        0.17363
C         -2.87381        1.48640        0.33128
N         -3.88859        2.35596        0.62421
C         -1.61486        2.04382        0.17117
C         -0.37796        1.42659       -0.02686
C          0.66647        2.34336       -0.18114
C          1.96156        1.94173       -0.45368
N          2.93517        2.87473       -0.67164
C          2.34969        0.56786       -0.34367
C          3.64062        0.00786       -0.06363
C          3.35097       -1.22479        0.60605
C          1.94180       -1.49935        0.60246
N          1.71529       -2.65921        1.28752
C          1.30678       -0.37367       -0.03723
C         -0.09603        0.04981       -0.15551
H         -4.19922       -2.04318       -0.30105
H         -2.74013       -2.91952       -0.71565
H         -4.29185       -0.05201        0.31614
H         -4.78864        1.98300        0.90582
H         -3.65932        3.30721        0.89002
H         -1.59809        3.12949        0.25743
H          0.46334        3.41241       -0.15687
H          3.84837        2.56002       -0.98059
H          2.66095        3.82783       -0.88314
H          4.46807        0.51821        0.42288
H          4.10710       -1.85282        1.06847
H          2.49958       -3.28304        1.44029
H          0.79664       -3.08199        1.20599
