31
Coordinates from ORCA-job ./opt_b97-3c_parallel
N         -5.29582        1.03442        0.12783
C         -4.19404        0.75873       -0.00372
C         -2.99713       -0.02285        0.00883
C         -2.70013       -1.43731        0.06212
N         -3.69423       -2.37067        0.11989
N         -1.63325       -1.79329        0.06466
C         -0.87066       -0.67386        0.02288
C         -1.65943        0.42841       -0.00749
N         -1.23090        1.68613       -0.11268
C          0.10755        1.84564       -0.11119
N          0.39844        3.16012       -0.35402
C          1.06750        0.78239        0.00976
C          2.45467        1.08483        0.15291
N          2.87199        2.36319        0.42691
C          3.55806        0.22709        0.12268
C          3.63436       -1.14800       -0.03131
N          4.88774       -1.69329       -0.07674
C          2.57671       -2.03432       -0.08899
C          1.22198       -1.76124       -0.03012
C          0.53083       -0.54096        0.00402
H         -4.65418       -2.07486        0.26375
H         -3.46124       -3.34085        0.29974
H         -0.36189        3.76562       -0.64162
H          1.32628        3.37885       -0.70160
H          3.82233        2.49442        0.75480
H          2.17548        3.02487        0.75349
H          4.52993        0.71082        0.22758
H          4.98913       -2.66147       -0.36054
H          5.68443       -1.07654       -0.19266
H          2.83238       -3.08972       -0.16596
H          0.62801       -2.67075       -0.05339
