29
Coordinates from ORCA-job ./opt_b97-3c_parallel
N          5.03219       -1.62015        0.14565
C          4.11355       -0.94109        0.11412
C          2.94840       -0.09566        0.09186
C          3.19598        1.30376        0.31641
N          2.60721        2.23252        0.20158
C          1.53179        2.30651       -0.03272
N          1.58718        3.42322       -0.82100
C          0.36464        1.46200        0.05247
C         -0.88522        2.08634        0.16886
C         -2.06436        1.34231        0.20171
C         -3.33189        2.01610        0.33662
N         -4.32824        2.56425        0.45113
C         -1.98232       -0.04532        0.09658
N         -3.00615       -0.92580        0.09809
C         -2.48558       -1.91444        0.00151
N         -3.33580       -2.98375       -0.04147
C         -1.04331       -2.03882       -0.08006
C         -0.43461       -3.32744       -0.22045
N          0.27268       -4.19537       -0.45320
C         -0.75730       -0.64917       -0.00849
C          0.45634        0.05375       -0.00463
C          1.67279       -0.65312       -0.03752
H          4.10196        1.78188        0.67135
H          0.73950        3.80272       -1.22761
H          2.42421        3.99575       -0.83360
H         -0.94023        3.17144        0.23302
H         -2.97200       -3.92999       -0.07186
H         -4.33250       -2.84787        0.08740
H          1.64201       -1.73275       -0.12923
