29
Coordinates from ORCA-job ./opt_b97-3c_parallel
N          3.54676       -3.66112       -0.00178
C          2.92262       -2.70353        0.00652
C          2.12459       -1.48846        0.00224
C          0.76121       -1.73896       -0.00474
C         -0.34521       -0.88851       -0.00537
C         -1.54584       -1.62670       -0.00002
C         -2.79218       -1.02695        0.00043
C         -3.98887       -1.83263        0.00676
N         -4.92705       -2.48520        0.01130
C         -2.83723        0.35506       -0.00195
N         -3.93759        1.11959        0.00384
C         -3.13049        1.89843       -0.00019
N         -2.11599        2.37551       -0.00197
C         -1.69320        1.09951       -0.00873
C         -0.37349        0.53331       -0.01435
C          0.78303        1.37799       -0.03037
N          0.56687        2.74026       -0.08176
C          2.16652        1.03055       -0.01018
C          3.12107        2.14277       -0.00757
N          3.86858        3.00895       -0.01573
C          2.77144       -0.24698        0.00835
N          4.15496       -0.30381        0.03101
H          0.52594       -2.80398       -0.00480
H         -1.52822       -2.71578        0.00472
H         -3.69533        2.82183       -0.00398
H          1.35049        3.37761        0.01259
H         -0.36746        3.11474        0.02369
H          4.63030       -1.19970       -0.00339
H          4.70201        0.55003       -0.00821
