28
Coordinates from ORCA-job ./opt_b97-3c_parallel
N          2.61559        3.62779        0.09937
C          2.34978        2.51773        0.08425
C          1.96551        1.14006        0.05471
C          3.13120        0.38513        0.03079
N          3.43977       -0.92859        0.01434
C          2.37492       -1.79970       -0.01998
N          2.89234       -2.77443        0.00107
N          1.09085       -1.69037       -0.06614
C          0.22668       -0.72998       -0.01997
C          0.58658        0.67794        0.05112
N         -0.37542        1.64321        0.10672
C         -1.70851        1.40377        0.09453
N         -2.22825        2.37705        0.15938
C         -2.07221        0.01586       -0.00521
C         -3.33768       -0.50356       -0.06900
N         -4.32116       -0.00333       -0.06717
C         -3.11419       -1.85556       -0.15606
C         -1.80829       -2.13247       -0.14329
C         -1.13168       -0.95597       -0.05050
H          4.20692        0.62653        0.03327
H          2.52859       -3.67583        0.31296
H          3.87417       -2.94571       -0.22296
H         -2.33170        3.38934        0.25182
H         -3.17908        2.00073        0.20594
H         -4.85403       -0.66018        0.50566
H         -4.95271        0.27395       -0.82071
H         -3.89760       -2.60979       -0.22855
H         -1.37314       -3.12821       -0.20316
