28
Coordinates from ORCA-job ./opt_b97-3c_parallel
N          3.79154       -2.70883        0.02075
C          3.05751       -1.83249       -0.00279
C          2.11751       -0.72677       -0.01949
C          2.74092        0.58049        0.00514
N          4.08987        0.81902       -0.08799
N          2.50166        1.65601        0.03852
C          1.43963        1.94968        0.01654
C          0.08063        1.48402       -0.00458
C         -0.90017        2.48301        0.00435
C         -2.24912        2.15659       -0.01153
C         -2.59425        0.81376       -0.03563
N         -3.82779        0.29709       -0.04990
C         -3.21508       -0.65002       -0.06026
N         -4.14844       -1.65272       -0.05370
N         -2.31949       -1.33398       -0.06612
C         -1.65178       -0.16902       -0.04592
C         -0.25932        0.10696       -0.03215
C          0.71946       -0.93335       -0.04154
N          0.31916       -2.24821       -0.07580
H          4.74129        0.04244       -0.04648
H          4.45524        1.75711        0.03353
H          1.80486        2.97152        0.00316
H         -0.61029        3.53155        0.02507
H         -3.01266        2.93101       -0.00308
H         -3.85862       -2.61645       -0.17712
H         -5.13053       -1.42796       -0.16314
H          1.00763       -2.97851        0.07184
H         -0.65917       -2.47259        0.06896
