23
Coordinates from ORCA-job ./opt_b97-3c_parallel
N          4.21040       -0.70992        0.05715
C          2.94460       -0.19355        0.03617
C          2.83769        1.19770        0.02295
C          1.61181        1.93526        0.00103
N          0.59236        1.53965       -0.00439
C         -0.10199        0.39247       -0.00110
C          0.49585       -0.89092        0.01468
C          1.88390       -1.11290        0.03156
N         -0.26992       -2.02206        0.01540
C         -1.62012       -1.93073        0.00191
C         -2.23801       -0.68853       -0.01242
C         -3.62022       -0.34916       -0.02721
N         -3.07816        0.64784       -0.02978
C         -2.38882        1.54989       -0.02987
C         -1.49892        0.43631       -0.01389
H          4.99579       -0.09364       -0.11963
H          4.33535       -1.70386       -0.10146
H          3.72460        1.82749        0.02982
H          1.46946        3.00887       -0.01400
H          2.18207       -2.16029        0.04405
H         -2.18145       -2.86253        0.00328
H         -4.47900       -1.00915       -0.01399
H         -2.15153        2.60642       -0.00019
