28
Coordinates from ORCA-job ./opt_b97-3c_parallel
N          4.86313        1.87939       -0.55179
C          3.91758        1.26240       -0.37511
C          2.71493        0.49194       -0.16806
C          1.48917        1.16531       -0.10313
C          0.20471        0.58135       -0.01199
C         -0.93525        1.42348        0.08763
N         -0.79143        2.78782        0.17288
C         -2.23939        0.88453        0.11024
C         -3.41224        1.72877        0.19824
N         -4.32774        2.40913        0.26960
C         -2.39735       -0.49794        0.03993
N         -3.53703       -1.22780        0.02545
C         -3.24186       -2.31419       -0.04932
C         -1.82606       -2.59743       -0.09388
C         -1.29976       -1.29204       -0.02936
C          0.00501       -0.81668       -0.05526
C          1.08015       -1.76854       -0.15513
N          2.17937       -1.82757       -0.07540
C          2.83664       -0.94175       -0.04645
N          3.94590       -1.57647        0.44534
H          1.56398        2.24805       -0.15393
H         -1.60773        3.34245        0.41012
H          0.11844        3.16774        0.40687
H         -4.08318       -2.99614       -0.08314
H         -1.33684       -3.56286       -0.17104
H          1.07392       -2.82515        0.09023
H          3.99028       -2.58902        0.43839
H          4.81839       -1.06468        0.52107
