32
Coordinates from ORCA-job ./opt_b97-3c_parallel
N          5.35510        1.17762       -0.23875
C          4.23141        0.97175       -0.24352
C          3.07487        0.14341       -0.09831
C          2.85605       -1.27238        0.09411
N          3.89782       -2.15113        0.17627
N          1.81024       -1.67174        0.18144
C          0.98291       -0.60430        0.08044
C          1.71693        0.53352       -0.09717
N          1.23918        1.77452       -0.27621
C         -0.10414        1.87662       -0.23504
N         -0.56539        3.14916       -0.42373
C         -0.96838        0.77806       -0.02035
C         -2.38891        1.02178        0.12565
N         -2.90488        1.91329        1.02996
N         -3.33120        0.49150       -0.10438
C         -3.44939       -0.59294       -0.28287
N         -4.68821       -0.74666       -0.83755
C         -2.62925       -1.71907        0.07525
C         -1.23982       -1.69356        0.23085
N         -0.69739       -2.92616        0.48218
C         -0.42837       -0.53096        0.10409
H          3.72425       -3.11576        0.43585
H          4.84956       -1.80344        0.22516
H         -1.54422        3.27806       -0.65628
H          0.09395        3.85932       -0.72296
H         -2.29979        2.63996        1.39826
H         -3.90405        2.08583        1.04282
H         -5.07181       -1.67805       -0.94986
H         -5.33673        0.03266       -0.83120
H         -3.18396       -2.64976        0.17835
H          0.31008       -3.03493        0.43343
H         -1.27149       -3.74991        0.34195
