30
Coordinates from ORCA-job ./opt_b97-3c_parallel
N          4.84959        2.96465        0.33641
C          4.06440        2.14226        0.22176
C          3.06945        1.10336        0.09595
C          3.56707       -0.18657        0.01507
C          2.85430       -1.36917       -0.07998
C          3.64725       -2.57135       -0.17612
N          4.27034       -3.52511       -0.26613
C          1.47332       -1.54147       -0.06593
C          0.42107       -0.61090       -0.01993
C          0.53029        0.80548       -0.02863
C          1.74229        1.52565        0.04842
C         -0.66316        1.58701       -0.09571
N         -0.61502        2.95956       -0.20176
C         -1.94204        1.00125       -0.07944
C         -3.13514        1.82183       -0.15123
N         -4.06276        2.48586       -0.21562
C         -2.02374       -0.38480        0.00415
C         -3.13332       -1.23317        0.07424
C         -4.53588       -0.90121        0.10527
N         -5.65190       -0.65703        0.13487
C         -2.66419       -2.53284        0.14217
C         -1.28057       -2.49410        0.10887
C         -0.87707       -1.15862        0.02248
H          4.65331       -0.28304        0.02998
H          1.19516       -2.58653       -0.12010
H          1.67456        2.60723        0.10666
H          0.25751        3.39743       -0.47300
H         -1.47385        3.45441       -0.42029
H         -3.27480       -3.42948        0.21935
H         -0.65473       -3.37904        0.16536
