32
Coordinates from ORCA-job ./opt_b97-3c_parallel
N         -5.56710        0.24416       -0.37828
C         -4.47374       -0.05516       -0.23359
C         -3.08919       -0.44949       -0.04244
C         -2.96238       -1.72294        0.47848
C         -1.82521       -2.49578        0.54080
C         -0.51111       -2.17833        0.21537
N          0.25719       -3.31310        0.25922
C          0.06059       -0.88927        0.01728
C         -0.66507        0.34332       -0.04081
C         -2.05501        0.45567       -0.33973
N         -2.46349        1.55485       -1.06779
C          0.07028        1.56249        0.12321
N         -0.54908        2.75118        0.44451
C          1.46914        1.59014        0.09577
C          2.22670        2.81519        0.25782
N          2.81490        3.78494        0.40187
C          2.14109        0.39684       -0.08719
N          3.46718        0.21464       -0.18695
C          3.12783       -0.85382       -0.24550
N          4.32139       -1.50736       -0.39224
N          2.42611       -1.72916       -0.23727
C          1.47634       -0.78543       -0.10636
H         -3.88071       -2.24255        0.75060
H         -2.01986       -3.52517        0.84179
H         -0.20494       -4.21486        0.28488
H          1.20392       -3.27935       -0.10316
H         -1.81028        2.31381       -1.23210
H         -3.45398        1.72320       -1.20995
H         -1.52947        2.73578        0.70575
H          0.01746        3.53806        0.74480
H          5.17935       -0.97981       -0.50815
H          4.33821       -2.50566       -0.56741
