33
Coordinates from ORCA-job ./opt_b97-3c_parallel
N         -5.25751        1.27763        1.09718
C         -4.31180        0.71253        0.79164
C         -3.10730        0.01151        0.40061
C         -3.36380       -1.27457       -0.20537
N         -4.23515       -1.47561       -1.24113
N         -2.84220       -2.24707       -0.16244
C         -1.83101       -2.37586        0.26208
C         -0.62702       -1.58916        0.16329
C          0.55593       -2.30675        0.00119
C          1.78280       -1.66039       -0.05720
C          2.97303       -2.46429       -0.18964
N          3.91060       -3.11170       -0.28047
C          1.81708       -0.26439       -0.00571
C          3.04294        0.48635       -0.10047
C          4.43990        0.35581        0.19419
N          5.36097        0.39404       -0.47953
C          2.25054        1.69377       -0.04779
N          2.94769        2.87535       -0.05404
C          0.81957        1.88509       -0.03256
C          0.24548        2.55270       -1.16648
N         -0.18576        3.60705       -1.27696
C          0.63864        0.46416        0.13123
C         -0.61882       -0.17928        0.28285
C         -1.81187        0.53961        0.58146
N         -1.73727        1.78445        1.15759
H         -4.42230       -2.42164       -1.55497
H         -4.93352       -0.76831       -1.44396
H         -1.95010       -3.45021        0.17268
H          0.52032       -3.39341       -0.05959
H          3.93093        2.84194       -0.30329
H          2.44008        3.72444       -0.27762
H         -2.58568        2.19440        1.53516
H         -0.85248        2.09255        1.54443
