29
Coordinates from ORCA-job ./opt_b97-3c_parallel
N          5.46679       -0.97630        0.01450
C          4.37543       -0.63850        0.00064
C          2.99345       -0.25362       -0.01096
C          2.70840        1.09638       -0.02873
N          3.41503        2.22543       -0.20597
C          1.34455        0.99317       -0.01707
C          0.35581        2.02580       -0.01466
C         -1.06661        1.82846       -0.01361
C         -1.92805        2.97135       -0.01703
N         -2.65147        3.85501       -0.01883
C         -1.53744        0.45676       -0.00600
N         -2.93038        0.29744       -0.00211
C         -3.46484       -0.97679        0.00444
N         -4.54522       -0.75436        0.00648
N         -3.31043       -2.34896        0.00949
C         -1.97731       -2.71009        0.00873
N         -0.96479       -1.90364        0.00577
C         -0.59266       -0.66127       -0.00188
C          0.81402       -0.31542       -0.00846
C          1.91432       -1.21456       -0.00400
N          1.98346       -2.31870        0.00623
H          4.41704        2.23480       -0.02002
H          3.03571        3.13008        0.07010
H          0.73964        3.04445       -0.03217
H         -5.04050        0.13688        0.00354
H         -5.26389       -1.47766        0.01302
H         -1.74827       -3.78763        0.01251
H          1.22986       -3.00074       -0.00297
H          2.85704       -2.84595       -0.00848
