31
Coordinates from ORCA-job ./opt_b97-3c_parallel
N         -5.29197       -0.39390       -0.73418
C         -4.19902       -0.18549       -0.46895
C         -2.80012        0.08452       -0.14840
C         -2.46394        1.43932       -0.00439
N         -3.45314        2.39146       -0.09631
C         -1.20994        1.98694        0.22185
C          0.05579        1.40527        0.22575
C          1.07679        2.37872        0.28472
C          2.41988        2.05203        0.20197
C          2.73462        0.71899        0.04730
C          4.03189        0.16715       -0.16653
N          5.33458        0.55592       -0.26092
N          3.33031       -0.70964       -0.22751
C          2.48949       -1.45648       -0.25144
C          1.77800       -0.24498        0.03859
C          0.38351        0.02509        0.16851
C         -0.54827       -1.04613        0.26944
C         -0.02385       -2.34010        0.69050
N          0.36088       -3.36089        1.03561
C         -1.95504       -1.02607        0.06806
N         -2.59353       -2.25690        0.05776
H         -4.36886        2.11355       -0.43462
H         -3.18972        3.36686       -0.18120
H         -1.22360        3.07217        0.32409
H          0.83425        3.43647        0.36429
H          3.19160        2.81784        0.21339
H          5.59765        1.50274       -0.01247
H          6.06500       -0.14297       -0.33536
H          2.30506       -2.18302       -1.03428
H         -3.60774       -2.28580        0.07460
H         -2.08783       -3.07822        0.37336
