30
Coordinates from ORCA-job ./opt_b97-3c_parallel
N          4.01215        2.79767       -0.53757
C          3.18635        2.02445       -0.37102
C          2.12336        1.05277       -0.16949
C          0.86825        1.63578       -0.06969
C         -0.42363        1.10131        0.05583
C         -1.44565        2.08544        0.20558
N         -1.20645        3.42084        0.41703
C         -2.78879        1.75352        0.17259
C         -3.13408        0.43659       -0.01621
N         -4.38056       -0.03732       -0.11344
C         -3.76234       -0.96880       -0.21826
N         -2.88815       -1.66944       -0.28086
C         -2.18820       -0.53540       -0.10067
C         -0.77829       -0.28076       -0.01554
C          0.14169       -1.37995        0.02938
N         -0.39265       -2.65268        0.06007
C          1.56508       -1.37961        0.10376
C          2.21922       -2.67603        0.30840
N          2.73159       -3.68325        0.48307
C          2.45859       -0.29750       -0.03362
N          3.81462       -0.57758       -0.04343
H          0.93529        2.71746       -0.14153
H         -0.27676        3.70782        0.70191
H         -1.98300        4.00994        0.69782
H         -3.56185        2.51285        0.27292
H         -4.54171       -1.70643       -0.35797
H         -1.36129       -2.79006       -0.19807
H          0.23067       -3.44568       -0.04649
H          4.12944       -1.50506        0.22273
H          4.47752        0.18839        0.01614
