27
Coordinates from ORCA-job ./opt_b97-3c_parallel
N          5.61277       -1.15990        0.00947
C          4.51221       -0.85009        0.00659
C          3.12365       -0.47646        0.00280
C          2.83056        0.93617        0.00182
N          1.79586        1.32702        0.00114
C          0.49205        0.95815        0.00009
C         -0.52965        1.93375       -0.00044
C         -0.22187        3.34445       -0.00030
N          0.00597        4.46446       -0.00049
C         -1.87616        1.55943       -0.00092
C         -2.17953        0.20409       -0.00128
C         -3.45376       -0.43138       -0.00085
N         -4.74408        0.01061       -0.00019
N         -2.70840       -1.28534       -0.00088
C         -1.84395       -2.01849       -0.00247
N         -1.38531       -3.30343       -0.00624
C         -1.21350       -0.73838       -0.00160
C          0.14585       -0.41286       -0.00050
N          1.08531       -1.38657        0.00016
C          2.17641       -1.56372        0.00121
H          3.52156        1.77053       -0.00313
H         -2.66893        2.30428       -0.00086
H         -4.95039        1.00343       -0.00270
H         -5.51358       -0.64951       -0.00181
H         -2.02818       -4.08656        0.00268
H         -0.38690       -3.48354        0.00157
H          2.36843       -2.63020        0.00272
