31
Coordinates from ORCA-job ./opt_b97-3c_parallel
N          4.95527       -1.30061       -0.52266
C          3.85537       -1.02972       -0.36639
C          2.44958       -0.69067       -0.14924
C          2.19408        0.58511        0.37937
N          3.28993        1.27935        0.86555
C          0.96347        1.27057        0.34870
C          0.96967        2.58143        0.99339
N          0.98940        3.60344        1.50595
C         -0.29174        0.80053       -0.11351
C         -1.25556        1.76839       -0.53594
C         -0.90672        3.00670       -1.20216
N         -0.64197        3.97743       -1.74389
C         -2.61902        1.51804       -0.46916
C         -3.02174        0.29580        0.01853
C         -4.36483       -0.14603        0.20840
N         -3.71060       -1.03011        0.44210
C         -2.93569       -1.82208        0.62706
C         -2.12928       -0.70218        0.23243
C         -0.72267       -0.54769        0.04646
C          0.12155       -1.69001       -0.06860
C         -0.49522       -3.01095       -0.08179
N         -0.94729       -4.06174       -0.10386
C          1.50573       -1.71215       -0.37709
N          2.02605       -2.90470       -0.85709
H          3.20273        2.27010        1.06840
H          4.22048        0.89476        0.73725
H         -3.35193        2.26495       -0.76841
H         -5.28766        0.40717        0.08023
H         -2.81326       -2.49096        1.47128
H          1.44216       -3.73612       -0.85989
H          3.03295       -3.02784       -0.89799
