29
Coordinates from ORCA-job ./opt_b97-3c_parallel
N         -5.37991       -1.96732        0.10617
C         -4.30477       -1.63060       -0.08845
C         -3.44152       -0.93679       -0.10436
C         -2.27252       -1.62877        0.03960
N         -1.20391       -1.34767        0.04855
C         -0.45542       -0.22297        0.04335
C         -0.97326        1.10662        0.01970
N         -2.29550        1.42056       -0.08533
C         -3.17807        0.40727       -0.13056
N         -3.81525        1.30577       -0.25389
N         -0.13498        2.17267        0.09035
C          1.19460        2.00197        0.20383
N          1.95847        3.13205        0.24522
C          1.74228        0.72901        0.26498
C          3.08569        0.26885        0.08318
N          4.03034        0.83914        0.15538
C          2.88737       -1.11830       -0.23313
C          3.95200       -2.02845       -0.53091
N          4.81053       -2.73601       -0.79220
C          1.61450       -1.61926       -0.26509
C          0.97733       -0.45894        0.07710
H         -1.94532       -2.33383        0.81998
H         -4.67337        0.78535       -0.42569
H         -3.92628        2.20841       -0.71369
H          1.48561        4.01532        0.40241
H          2.91366        3.04692        0.57552
H          3.82107        1.60864       -0.47861
H          4.87431        0.38804       -0.19412
H          1.37099       -2.55462        0.23402
