28
Coordinates from ORCA-job ./opt_b97-3c_parallel
N         -3.84064       -1.64998       -0.16898
C         -2.89458       -1.07856       -0.09222
C         -1.55430       -1.63204       -0.03444
C         -0.28307       -0.91706        0.03801
C          0.81837       -1.86665        0.08404
C          2.14794       -1.46163        0.05719
N          2.93424       -2.22990        0.13053
C          2.42888       -0.06105       -0.00984
C          3.56614        0.67496       -0.10211
C          3.18662        1.95174       -0.11691
C          1.86403        2.09523       -0.03330
C          1.33951        0.83842        0.03161
C          0.00112        0.46142        0.05520
N         -0.86974        1.48734        0.08038
C         -2.18827        1.14341        0.04511
N         -2.61004        2.16413        0.11179
N         -3.23103        0.26176       -0.02556
H         -4.85174       -1.50945       -0.21472
H         -3.71227       -2.65117       -0.32932
H         -1.50695       -2.71822       -0.06411
H          0.60672       -2.93290        0.17519
H          3.85732       -1.79738        0.10543
H          3.08953       -3.21220        0.35601
H          4.58532        0.29855       -0.16430
H          3.88192        2.78545       -0.19109
H          1.32466        3.03956       -0.02999
H         -3.57868        2.47478        0.19288
H         -2.05308        3.01343        0.22215
