27
Coordinates from ORCA-job ./opt_b97-3c_parallel
N         -3.42551       -2.95703        0.43243
C         -2.52260       -2.27016        0.29982
C         -1.39821       -1.37782        0.13682
C         -0.08712       -1.83458       -0.06400
N          0.16381       -3.18231       -0.12154
C          0.97032       -0.92296       -0.19393
C          2.31562       -1.43021       -0.39219
N          3.47467       -0.93325        0.06942
C          3.51079        0.28301        0.62808
N          2.65955        1.25187        0.77572
C          1.76660        1.43633       -0.14593
N          1.94733        2.47500       -0.47586
C          0.70707        0.45233       -0.10878
C         -0.65181        0.89917        0.08671
N         -1.09878        2.14950        0.06769
C         -2.46406        1.94148        0.20121
N         -3.12189        2.82782        0.20317
N         -2.85836        0.69786        0.28356
C         -1.75711        0.02187        0.19207
H          1.12327       -3.51176       -0.08367
H         -0.57160       -3.83584        0.13192
H          2.93194       -2.29709       -0.67559
H          4.59247        0.27830        0.83367
H          2.94960        2.62857       -0.58437
H          1.51743        3.39763       -0.47260
H         -4.14084        2.80309        0.17012
H         -2.85985        3.81326        0.19639
