29
Coordinates from ORCA-job ./opt_b97-3c_parallel
N         -4.86399       -1.46193        0.03882
C         -3.72593       -1.37823       -0.02752
C         -2.30273       -1.24772       -0.07311
C         -1.82050       -2.53341       -0.11899
C         -0.47695       -2.23793       -0.19184
C          0.31654       -3.37029        0.18253
N          0.94798       -4.26145        0.51294
C         -0.09341       -0.85371       -0.21355
C         -1.30478       -0.22467       -0.11539
C         -1.46512        1.16332       -0.03648
C         -2.79522        1.72298        0.06782
N         -3.83985        2.17890        0.15234
C         -0.33154        2.00175       -0.04259
N         -0.50483        3.36286        0.04463
C          0.97104        1.46742       -0.12984
C          2.05906        2.42819       -0.12268
N          3.34045        2.26426        0.23856
C          3.88749        1.04609        0.24366
N          3.45778       -0.06072       -0.27053
C          2.31256       -0.64741       -0.39018
N          2.91108       -1.56158       -0.54019
C          1.04698        0.01983       -0.23048
H         -2.19525       -3.30644        0.55342
H         -1.43067        3.72460        0.25010
H          0.29396        3.94775        0.26386
H          2.20590        3.51464       -0.03417
H          4.90520        1.11520        0.65683
H          3.70841       -1.98445       -1.01171
H          2.12304       -1.63576       -1.18009
