22
Coordinates from ORCA-job ./opt_b97-3c_parallel
N         -0.90574        2.17091       -0.93063
C         -0.94566        1.29756        0.09052
C         -2.19784        1.43623        0.59210
C         -3.23798        0.45591        0.46131
N         -3.11010       -0.83409       -0.04914
C         -1.94079       -1.53472       -0.33295
C         -0.62682       -1.15198       -0.16201
C          0.36942       -2.18828       -0.25858
N          1.74407       -2.03654       -0.11380
C          2.10340       -0.76304        0.13275
N          3.37614       -0.28157        0.30439
C          3.23509        1.09028        0.49985
N          1.89889        1.47661        0.45042
C          1.19710        0.31794        0.22376
C         -0.16867        0.18619        0.07402
H         -0.02286        2.59811       -1.20554
H         -1.62281        2.89203       -1.00839
H         -2.49846        2.37677        1.04619
H         -4.28874        0.62417        0.74208
H         -2.84022       -2.14455       -0.50972
H          0.17506       -3.25537       -0.44740
H          4.05258        1.80916        0.66748
