27
Coordinates from ORCA-job ./opt_b97-3c_parallel
N          5.41068       -0.16945        0.06677
C          4.26902       -0.19953        0.09931
C          2.83482       -0.23356        0.09727
C          2.24424       -1.46758        0.16225
C          0.91750       -1.13059        0.08337
C         -0.16850       -1.97050        0.05005
N          0.13986       -3.26607       -0.16833
C         -1.43544       -1.43127        0.04250
C         -2.53103       -2.36249        0.07631
N         -3.38628       -3.12121        0.07882
C         -1.65739        0.00180        0.00304
N         -2.98926        0.43113       -0.00552
C         -3.23624        1.78923       -0.01519
N         -2.78055        3.08976       -0.02168
C         -1.40297        3.12693       -0.03326
N         -0.55755        2.14767       -0.05076
C         -0.55303        0.85185       -0.01447
C          0.71016        0.28073        0.03044
C          1.98652        0.92569        0.02914
N          2.38548        1.95700       -0.01383
H          2.65100       -2.31076       -0.39185
H          1.03992       -3.63870        0.12705
H         -0.56404       -3.98811       -0.01922
H         -4.33401        1.71337       -0.01198
H         -1.23296        4.21397       -0.02714
H          3.24738        2.49965       -0.00494
H          1.61247        2.62050       -0.00945
