31
Coordinates from ORCA-job ./opt_b97-3c_parallel
N          4.30015        1.20992        0.00548
C          2.99849        0.78737        0.00029
C          2.78324       -0.55089       -0.26198
C          1.60628       -1.29475       -0.21829
N          1.86509       -2.58563       -0.60856
C          0.27095       -0.87356        0.05137
C         -0.72690       -1.87936        0.28803
N         -0.45625       -3.17533        0.64833
C         -2.08853       -1.59510        0.27317
C         -2.49859       -0.30878        0.02424
N         -3.77217        0.11809       -0.09775
C         -3.71775        1.21922       -0.30767
C         -2.40065        1.80293       -0.33009
C         -1.56977        0.67865       -0.06546
C         -0.16778        0.49085        0.05014
C          0.64820        1.64392        0.19576
N          0.07749        2.85980        0.46696
C          2.03553        1.74902        0.23028
H          4.49619        2.20450        0.03065
H          5.02330        0.58380       -0.33123
H          3.69039       -1.11110       -0.49293
H          1.07381       -3.16932       -0.86043
H          2.75492       -2.78694       -1.05059
H         -1.20424       -3.73017        1.04887
H          0.49469       -3.39882        0.92392
H         -2.82766       -2.37805        0.43205
H         -4.67740        1.67686       -0.51589
H         -2.16494        2.82022       -0.62218
H          0.67983        3.60824        0.79098
H         -0.88631        2.87244        0.78038
H          2.43330        2.74664        0.41974
