24
Coordinates from ORCA-job ./opt_b97-3c_parallel
N          4.54077        1.73181       -0.01722
C          3.70795        0.95320        0.05862
C          2.41830        0.32910        0.01434
C          1.38189        1.25543        0.02850
C         -0.03204        0.92338       -0.00185
C         -0.88856        2.09136        0.02860
N         -2.22848        1.92253        0.00727
C         -2.75988        0.68990       -0.04285
N         -4.06383        0.30685       -0.07108
C         -3.92334       -1.07481       -0.12026
C         -2.67160       -1.65718       -0.12836
C         -1.97897       -0.48131       -0.07463
C         -0.60841       -0.33995       -0.05393
C          0.19121       -1.52735       -0.08656
N          1.27449       -1.73753       -0.07619
C          2.16709       -1.08688       -0.03695
N          2.92206       -1.89722       -0.04714
H          1.61399        2.31780        0.06774
H         -0.73476        3.18062        0.06948
H         -4.93893       -1.50031       -0.14174
H         -2.44012       -2.48172        0.54302
H          0.11007       -2.62574       -0.12792
H          3.81101       -1.40067       -0.02715
H          3.14459       -2.89039       -0.01526
