26
Coordinates from ORCA-job ./opt_b97-3c_parallel
N         -1.53918       -2.97170       -1.91073
C         -1.66003       -2.05489       -1.23882
C         -1.79522       -0.93026       -0.36669
C         -3.06669       -0.62690        0.23505
C         -3.29659        0.50298        0.95761
C         -3.02933        1.47488        0.04144
N         -2.00250        2.04944       -0.60147
C         -0.82195        1.42108       -0.39546
N          0.29758        2.19709       -0.44886
C          1.51204        1.66762       -0.17803
N          2.58938        2.50167       -0.25979
C          1.63716        0.32698        0.16958
C          2.79779       -0.44919        0.46189
N          3.85604       -0.73418        0.35068
N          1.94036       -1.19056        0.49540
C          0.98226       -1.79831        0.48056
C          0.55146       -0.47137        0.18232
C         -0.71893        0.02229       -0.13907
H         -3.88196       -1.31599        0.03410
H         -4.16380        0.57919        1.60899
H         -3.62332        2.28386       -0.40945
H          3.51448        2.08953       -0.30412
H          2.45520        3.40836       -0.69325
H          4.65788       -1.22828        0.73595
H          3.80715        0.16906        0.81716
H          0.95082       -2.89793        0.47082
