25
Coordinates from ORCA-job ./opt_b97-3c_parallel
N         -4.20418       -2.07920        0.06420
C         -3.19727       -1.53801        0.05637
C         -1.93207       -0.87431        0.08252
C         -0.70737       -1.62094        0.24118
C          0.51956       -1.00403        0.23833
C          1.49686       -1.90927       -0.06173
N          2.82409       -1.91104       -0.23983
C          3.46191       -0.74403       -0.07897
N          3.06211        0.44848        0.24612
C          1.92106        1.06586        0.20154
N          2.52894        1.98751        0.19395
C          0.66104        0.36174        0.16208
C         -0.49548        1.10360        0.02249
C         -0.67847        2.44159       -0.11821
C         -2.00006        2.60870       -0.25073
C         -2.68902        1.46335       -0.19970
C         -1.75998        0.49033       -0.03108
H         -0.80036       -2.69839        0.35655
H          1.63701       -2.97759       -0.28507
H          4.52485       -0.91555       -0.30535
H          3.26947        2.35009        0.79164
H          1.66102        2.07256        0.71837
H          0.07974        3.22050       -0.13333
H         -2.46725        3.58077       -0.38951
H         -3.76677        1.34023       -0.28902
