29
Coordinates from ORCA-job ./opt_b97-3c_parallel
N         -4.50807       -1.26892       -0.37570
C         -3.61382       -0.56256       -0.27494
C         -2.49549        0.35790       -0.14705
C         -2.91231        1.68520       -0.22423
C         -2.17760        2.84702       -0.08876
C         -0.82659        2.97955        0.16134
C          0.15239        1.99488        0.25156
C          1.45754        2.55365        0.54634
N          2.47447        3.01414        0.79010
C          0.01351        0.59626        0.11132
C         -1.18634       -0.16015       -0.00075
N         -1.12358       -1.52468        0.04532
C          0.02427       -2.21456        0.14512
N         -0.10356       -3.57237        0.20311
C          1.25700       -1.58009        0.14559
C          2.47131       -2.24726        0.12944
C          3.64459       -1.44225       -0.00919
C          2.62582       -0.45683       -0.28129
N          3.25252        0.45476       -1.08719
C          1.26313       -0.15188        0.09589
H         -3.97589        1.85395       -0.38956
H         -2.74051        3.77509       -0.16139
H         -0.49632        4.01137        0.28020
H         -1.02499       -3.95600        0.38219
H          0.70068       -4.12168        0.48311
H          2.52625       -3.33293        0.14161
H          4.48145       -1.70305       -0.65165
H          2.83521        1.37555       -1.17183
H          4.26067        0.39640       -1.17785
