35
Coordinates from ORCA-job ./opt_b97-3c_parallel
N          5.23507        1.75916        1.12778
C          4.26186        1.26871        0.78279
C          3.03092        0.62940        0.34938
C          3.21849       -0.69529       -0.00036
C          2.28216       -1.66049       -0.32789
C          2.90518       -2.92925       -0.66768
N          3.40368       -3.91936       -0.94677
C          0.87830       -1.55932       -0.26127
N          0.23031       -2.74055       -0.55240
C          0.08216       -0.38837       -0.09556
C          0.55974        0.95502       -0.18265
C         -0.38147        1.94860       -0.59140
N         -0.03111        3.16821       -1.11476
C         -1.74597        1.71027       -0.58618
C         -2.21416        0.49104       -0.15382
C         -3.61995        0.23491       -0.00883
C         -4.83963        0.85649       -0.42175
N         -5.57295        1.72827       -0.33243
C         -3.29729       -1.08188        0.47840
N         -4.26778       -1.93541        0.92312
C         -2.00370       -1.70038        0.59564
C         -1.32740       -0.53975        0.07707
C          1.85555        1.38886        0.21764
N          1.97928        2.68943        0.66114
H          4.25530       -1.03757        0.01612
H         -0.75007       -2.70810       -0.80834
H          0.77729       -3.53022       -0.87952
H          0.94074        3.32382       -1.36166
H         -0.73733        3.71192       -1.59870
H         -2.44636        2.49374       -0.87069
H         -5.20374       -1.57177        1.06896
H         -3.99413       -2.76899        1.43145
H         -1.67401       -2.30030        1.43933
H          1.19414        3.32561        0.56952
H          2.89494        3.06487        0.88476
