29
Coordinates from ORCA-job ./opt_b97-3c_parallel
N         -2.84723        2.78401       -0.17314
C         -2.30816        1.52707       -0.12330
C         -3.21830        0.46951       -0.14098
C         -2.87421       -0.91613       -0.06254
N         -3.77935       -1.90386        0.19187
N         -1.85796       -1.31006       -0.08597
C         -0.55071       -1.02178       -0.09060
C          0.31640       -2.11691       -0.11927
C          1.69333       -1.95918       -0.12051
C          2.24034       -0.64022       -0.08585
C          3.41099        0.19610       -0.03687
N          4.59179       -0.49021       -0.04703
C          3.45538        1.63321       -0.00291
C          2.02518        1.69584        0.02247
C          1.34577        0.48311       -0.03997
C         -0.05910        0.30409       -0.05983
C         -0.90515        1.43926       -0.06974
H         -2.25054        3.58464        0.00099
H         -3.84888        2.89422       -0.05976
H         -4.28768        0.66179       -0.19954
H         -3.45012       -2.83624        0.41487
H         -4.73439       -1.66382        0.43127
H         -0.09294       -3.12489       -0.14253
H          2.34282       -2.82990       -0.14547
H          5.45302        0.02151       -0.20297
H          4.57762       -1.48061       -0.26447
H          4.12155        2.24293        0.59868
H          1.55763        2.67098        0.09582
H         -0.42800        2.41018       -0.06094
