30
Coordinates from ORCA-job ./opt_b97-3c_parallel
N         -2.75908        3.59404        0.01054
C         -1.98097        2.75847        0.00733
C         -0.98174        1.71616        0.00097
C          0.35372        2.09804        0.00643
C          1.37091        1.14755        0.00519
C          2.72070        1.64849        0.01563
N          3.77980        1.33973        0.00573
C          4.08676        0.28116       -0.00263
N          5.44308        0.43631       -0.02556
C          3.45763       -1.01179        0.00603
C          2.07669       -1.22010        0.00620
C          1.06960       -0.23017       -0.00185
C         -0.29424       -0.60614       -0.01529
C         -0.75397       -1.97363       -0.04043
C         -0.48182       -3.36376       -0.26836
N         -0.05454       -4.40447       -0.06578
C         -2.11016       -1.46909        0.01140
N         -3.13317       -2.37994        0.11498
C         -2.66193       -0.13184       -0.01975
C         -4.01044        0.35748       -0.04792
N         -5.15207        0.38690       -0.09384
C         -1.30404        0.35307       -0.01132
H          0.60970        3.15644        0.01414
H          3.06286        2.67751        0.01824
H          6.05395       -0.37185        0.00857
H          5.85515        1.36172        0.01683
H          4.12865       -1.86824        0.01063
H          1.79694       -2.26338        0.01654
H         -2.92840       -3.36125       -0.04180
H         -4.08476       -2.06277       -0.04155
