27
Coordinates from ORCA-job ./opt_b97-3c_parallel
N          1.70888        3.21147       -0.17340
C          1.60094        2.07405       -0.11193
C          1.50404        0.62620       -0.03839
C          2.76955       -0.03288       -0.02455
N          3.93050        0.70316       -0.07038
C          3.02244       -1.40676        0.03356
C          2.08693       -2.48303        0.09605
N          1.02560       -2.25132        0.05978
C          0.01334       -1.38448        0.01400
C         -1.26731       -1.95507       -0.00055
C         -2.41197       -1.17024       -0.02957
N         -3.65498       -1.73916       -0.04973
C         -2.23687        0.20553       -0.02995
C         -3.25470        1.20728       -0.03952
N         -2.28626        1.78052       -0.02417
C         -1.23856        2.18860       -0.00936
C         -0.99974        0.77583       -0.01968
C          0.20545        0.01916       -0.01243
H          3.87252        1.69253       -0.28877
H          4.80672        0.22549       -0.24970
H          4.03749       -1.79919        0.04147
H          2.17162       -3.42216        0.62943
H         -1.36965       -3.03875        0.01292
H         -3.73021       -2.73194       -0.24159
H         -4.45132       -1.15171       -0.27064
H         -4.26952        1.14557        0.33425
H         -1.08813        2.89676        0.79743
