28
Coordinates from ORCA-job ./opt_b97-3c_parallel
N          3.60003        1.58795       -0.15989
C          2.85517        0.45888       -0.00123
N          3.46081       -0.47193        0.02994
C          3.22210       -1.55735        0.02798
C          1.92496       -2.19533       -0.00493
C          0.70339       -1.50623       -0.01724
N         -0.43332       -2.25753       -0.03898
C         -1.63814       -1.64226       -0.03727
N         -2.74428       -2.44035       -0.07394
C         -1.72568       -0.25287       -0.00911
C         -2.86234        0.60731        0.01956
N         -4.22324        0.58898        0.11064
N         -1.98115        1.32109        0.00204
C         -0.98866        1.87233        0.00718
N         -0.41021        3.10732       -0.00340
C         -0.60640        0.49831       -0.00066
C          0.66196       -0.08679       -0.00545
N          1.77093        0.69106        0.00180
H          4.60902        1.53783       -0.08122
H          3.15625        2.49665       -0.09993
H          4.19186       -2.00608        0.20513
H          1.94813       -3.28229       -0.01120
H         -3.63241       -2.01387       -0.31339
H         -2.61625       -3.42149       -0.29433
H         -4.69069       -0.28397        0.33144
H         -4.71806        1.44986        0.31487
H          0.59204        3.18328       -0.13926
H         -0.97955        3.92966       -0.16651
