26
Coordinates from ORCA-job ./opt_b97-3c_parallel
N          5.16274        1.55712        0.02460
C          4.11509        1.09845        0.01745
C          2.80521        0.50043        0.00836
C          1.77670        1.51287        0.00414
N          0.68291        1.34707       -0.00225
C         -0.20429        0.32610       -0.00905
C          0.20380       -1.02888       -0.01005
C         -0.76447       -2.04623       -0.01675
C         -2.12797       -1.74759       -0.02275
C         -2.49765       -0.40783       -0.02174
C         -3.80065        0.16577       -0.02363
N         -5.08370       -0.29449       -0.02126
N         -3.10093        1.05617       -0.02113
C         -2.27043        1.82847       -0.01535
C         -1.57809        0.58181       -0.01559
N          1.50971       -1.37634       -0.00333
C          2.51334       -0.91372        0.00274
N          3.47717       -1.88186        0.00323
H          1.88340        2.59124        0.00608
H         -0.45066       -3.08746       -0.01719
H         -2.87620       -2.53574       -0.02725
H         -5.27288       -1.29004       -0.04943
H         -5.86245        0.35385       -0.04763
H         -1.86067        2.83103       -0.01631
H          3.22460       -2.86322        0.00609
H          4.45911       -1.62723        0.01513
