29
Coordinates from ORCA-job ./opt_b97-3c_parallel
N         -3.76519        2.69745        0.41549
C         -3.03464        1.83502        0.24595
C         -2.10009        0.75761        0.01147
C         -2.68769       -0.31774       -0.74748
N         -2.56349       -1.40421       -0.57423
C         -1.69647       -1.90936       -0.11235
N         -2.25796       -2.94246        0.58457
C         -0.28875       -1.58326       -0.07179
C          0.60648       -2.65735       -0.17915
C          1.97909       -2.45697       -0.11643
C          2.43263       -1.15498       -0.01020
C          3.74709       -0.73039       -0.07001
C          3.72095        0.65123       -0.09174
C          2.39738        1.07085       -0.02726
C          2.04330        2.44152       -0.30078
N          1.78247        3.53069       -0.53002
C          1.57481       -0.06642        0.07328
C          0.16976       -0.25120        0.11563
C         -0.74602        0.79602        0.39327
N         -0.36000        1.84205        1.18995
H         -3.56973       -0.30057       -1.37693
H         -3.22704       -3.18863        0.41606
H         -1.66044       -3.63760        1.01736
H          0.22938       -3.66998       -0.30446
H          2.67191       -3.29019       -0.20544
H          4.62752       -1.36079       -0.16957
H          4.58601        1.29733       -0.22588
H         -0.98504        2.63082        1.32063
H          0.61086        1.93477        1.46562
