23
Coordinates from ORCA-job ./opt_b97-3c_parallel
N         -4.26083        0.49099        0.01779
C         -2.99711       -0.01964        0.02834
N         -2.35546       -0.95257        0.02544
C         -1.57775       -1.77687        0.02602
C         -0.80500       -0.57742        0.02797
C         -1.65993        0.46907        0.03407
C         -1.20782        1.78363        0.04403
C          0.17137        1.99974        0.04363
C          1.07658        0.92658        0.03316
N          2.40187        1.19759        0.02702
C          3.32374        0.57718        0.01609
N          3.49282       -0.52248        0.01913
C          2.87062       -1.44305        0.03022
C          1.42733       -1.52335        0.02436
C          0.58262       -0.40130        0.02828
H         -5.05168       -0.12622       -0.12698
H         -4.40024        1.48735       -0.10619
H         -1.36366       -2.72441       -0.45342
H         -1.90652        2.61616        0.05161
H          0.54667        3.02042        0.05034
H          4.10800        1.18835       -0.40445
H          3.58648       -2.18045        0.37288
H          1.03095       -2.53515        0.02185
