29
Coordinates from ORCA-job ./opt_b97-3c_parallel
N         -3.07059        3.92134        0.26974
C         -2.68420        2.85201        0.16307
C         -2.20544        1.49470        0.04534
C         -3.17534        0.51758       -0.06889
C         -2.99857       -0.84575       -0.20823
C         -1.84029       -1.62276       -0.16757
N         -2.15312       -2.93471       -0.41794
C         -0.48665       -1.21191        0.00851
C          0.54705       -2.19821        0.17555
N          0.34352       -3.51433        0.48744
N          1.87198       -1.94458        0.16882
C          2.19692       -0.66304        0.01835
C          3.48096       -0.09155       -0.01672
C          3.13504        1.30713       -0.10413
N          4.10759        2.25739       -0.20722
N          2.03250        1.54133       -0.10058
C          1.33602        0.37932       -0.03086
C         -0.05253        0.14929       -0.00695
C         -0.82864        1.31951        0.01779
H         -4.21062        0.85415       -0.08330
H         -3.93556       -1.38391       -0.35216
H         -1.39566       -3.56016       -0.67307
H         -3.07335       -3.14671       -0.78682
H          1.15238       -4.06018        0.76192
H         -0.54591       -3.75885        0.90986
H          4.46450       -0.54968       -0.02233
H          3.84694        3.21578       -0.41000
H          5.06577        1.97750       -0.38522
H         -0.28201        2.25936        0.05869
