27
Coordinates from ORCA-job ./opt_b97-3c_parallel
N          4.89138       -1.83023       -0.11441
C          3.96599       -1.16014       -0.10101
C          2.79086       -0.32857       -0.08566
C          2.77939        1.05857       -0.09016
C          1.45451        1.48091       -0.06211
C          1.05962        2.86604       -0.04349
N          0.75819        3.96800       -0.01628
C          0.63951        0.34574       -0.03934
C          1.47210       -0.75493       -0.05037
C          0.96906       -2.04483       -0.01664
C         -0.41437       -2.20940        0.03327
C         -1.30308       -1.10956        0.03644
C         -2.69749       -1.36334        0.08256
N         -3.16493       -2.63466        0.28647
C         -3.69315       -0.39322       -0.07457
C         -3.44972        0.99191       -0.37333
N         -2.61204        1.69375       -0.22671
C         -1.59284        1.37047        0.04297
C         -0.75519        0.19898       -0.00082
H          3.65507        1.70338       -0.10621
H          1.63020       -2.90805       -0.02714
H         -0.78496       -3.23068        0.04983
H         -4.14769       -2.75385        0.50627
H         -2.51942       -3.33017        0.64302
H         -4.74809       -0.65462       -0.02498
H         -4.12322        1.70823       -0.83021
H         -1.54728        2.20701        0.73256
