27
Coordinates from ORCA-job ./opt_b97-3c_parallel
N          3.24681        2.27401        0.31682
C          2.60393        1.07589        0.17795
C          3.40877       -0.05554        0.03933
C          2.93359       -1.39449       -0.13285
N          1.89910       -1.74969       -0.10311
C          0.63029       -1.32783       -0.01529
C         -0.37837       -2.29737       -0.02967
C         -1.72682       -1.96390        0.06553
C         -2.10383       -0.62932        0.15412
C         -3.42868       -0.24252        0.24306
C         -3.67622        1.16634        0.29159
C         -2.26224        1.25013        0.02594
N         -1.90100        2.45305       -0.51424
C         -1.10354        0.39776        0.13770
C          0.29317        0.03342        0.09594
C          1.20164        1.10086        0.18698
H          2.70920        3.08048        0.61515
H          4.24284        2.27109        0.50638
H          4.49348        0.02411        0.04301
H          3.37406       -2.19792       -0.71057
H         -0.10614       -3.34774       -0.10724
H         -2.47862       -2.74975        0.06568
H         -4.22432       -0.98392        0.25775
H         -4.46370        1.66969       -0.26036
H         -2.62931        3.08152       -0.83409
H         -0.98097        2.53801       -0.93254
H          0.75384        2.08693        0.29301
