26
Coordinates from ORCA-job ./opt_b97-3c_parallel
N         -4.99435       -1.63308       -0.54082
C         -3.97815       -1.15743       -0.33372
C         -2.73235       -0.50933       -0.05556
C         -1.85217       -1.41906        0.46371
C         -0.53274       -1.27940        0.53076
C          0.20706       -0.21060        0.11254
C         -0.19556        1.19519        0.12054
N          0.76278        2.14708        0.07853
C          2.06543        1.82268        0.03749
C          2.73586        0.63588       -0.03304
C          4.09591        0.54517       -0.13019
N          4.00149       -0.77953       -0.29977
C          2.76090       -1.26964       -0.26577
N          2.97622       -2.34225       -0.45658
C          1.64283       -0.38102       -0.05172
N         -1.50726        1.67135        0.12592
C         -2.67237        0.92706       -0.02506
N         -3.36626        1.77289       -0.20761
H         -2.25073       -2.34727        0.87883
H          0.01025       -2.10582        0.98802
H          2.43812        2.86006        0.03139
H          5.11857        0.95546       -0.13446
H          2.44061       -3.08954       -0.90352
H          3.89722       -2.76046       -0.29821
H         -4.27747        1.30950       -0.14856
H         -3.59019        2.73547       -0.47160
