27
Coordinates from ORCA-job ./opt_b97-3c_parallel
N          5.94914        0.75826        0.06698
C          4.85148        0.44288        0.03623
C          3.46163        0.06131        0.00322
C          3.19978       -1.35344        0.02215
N          2.31464       -2.01132       -0.03090
C          1.26615       -1.67737       -0.11208
C          0.47271       -0.47315       -0.07469
C          1.07372        0.80340       -0.03474
C          0.25067        1.93597       -0.01089
C         -1.13610        1.81916       -0.01292
C         -1.72040        0.55659       -0.04845
C         -3.14289        0.36619       -0.05452
C         -4.23629        1.27108       -0.23399
N         -5.07060        1.95671        0.13756
C         -2.85055       -1.05022       -0.03558
N         -4.00216       -1.78444        0.05943
C         -1.63474       -1.82219       -0.13304
C         -0.92633       -0.57554       -0.08340
C          2.46012        1.03673       -0.01453
H          3.90139       -2.16349        0.18975
H          0.98826       -2.66468       -0.46476
H          0.68921        2.93125        0.01588
H         -1.75379        2.71398        0.01303
H         -3.94839       -2.78290        0.22692
H         -4.87383       -1.30605        0.26416
H         -1.40958       -2.71263        0.44560
H          2.79343        2.07288       -0.00321
