32
Coordinates from ORCA-job ./opt_b97-3c_parallel
N         -3.86073       -2.67152       -0.20788
C         -2.91793       -2.02590       -0.15073
C         -1.71394       -1.22221       -0.09276
C         -0.43345       -1.79545       -0.05537
N         -0.36819       -3.16939       -0.11748
C          0.74644       -0.99423        0.01575
C          1.94484       -1.70230        0.23697
C          3.25744       -1.27390        0.34687
C          3.78056       -0.01402        0.13290
N          5.13919        0.10785        0.23041
C          3.07433        1.12461       -0.21452
C          1.69826        1.33362       -0.30780
N          1.43246        2.60636       -0.73982
C          0.63066        0.42084       -0.10445
C         -0.69142        0.92198       -0.04760
C         -1.23471        2.22972        0.08458
C         -2.64763        1.96024        0.14206
N         -3.53955        2.95804        0.40123
N         -2.95423        0.88766        0.04512
C         -1.81831        0.15619       -0.02822
H         -1.21440       -3.67605       -0.35658
H          0.51544       -3.59563       -0.37149
H          1.88549       -2.77078        0.41373
H          3.97441       -2.05531        0.59330
H          5.66922       -0.64594        0.65371
H          5.55005        1.03490        0.22055
H          3.69917        1.99546       -0.41520
H          2.20402        3.15427       -1.10423
H          0.51398        2.79202       -1.12700
H         -0.76387        3.18135        0.30658
H         -3.20404        3.87257        0.68161
H         -4.50131        2.71888        0.61600
