29
Coordinates from ORCA-job ./opt_b97-3c_parallel
N         -4.08752       -2.91395        0.11612
C         -3.46099       -1.95938        0.05469
C         -2.66173       -0.75100       -0.00341
C         -1.28542       -0.97807        0.01662
C         -0.19049       -0.09799        0.00439
C         -0.22585        1.32293        0.00264
C         -1.39512        2.09977       -0.05621
C         -2.73281        1.73536       -0.11036
C         -3.32304        0.48020       -0.08238
N         -4.69468        0.50195       -0.14191
C          1.00442        2.04135        0.04885
N          1.07669        3.40894        0.10361
C          2.23110        1.38432        0.05234
C          2.21850        0.00881        0.01869
C          3.28954       -0.90869        0.00706
C          4.71757       -0.92356        0.00022
N          5.66133       -0.28130       -0.04667
C          2.50302       -2.11971       -0.01686
N          1.38003       -2.04085       -0.01595
C          1.07465       -0.72176        0.00408
H         -1.03585       -2.03626        0.05298
H         -1.28710        3.17864       -0.08425
H         -3.41832        2.57915       -0.17387
H         -5.18482        1.38633       -0.06711
H         -5.21234       -0.35752        0.01077
H          1.97077        3.83498        0.32217
H          0.23995        3.92851        0.34276
H          3.17203        1.93011        0.07937
H          2.82981       -3.15252       -0.04058
