29
Coordinates from ORCA-job ./opt_b97-3c_parallel
N          4.10790       -2.02487       -1.98832
C          3.34609       -1.46692       -1.34571
C          2.36412       -0.80743       -0.52060
C          1.15450       -1.55829       -0.34380
C          0.28220       -1.32321        0.66861
C         -0.40344       -2.45103        1.04475
N         -1.71087       -2.68860        0.82238
C         -2.43368       -1.69794        0.26943
N         -3.76836       -1.71039       -0.06707
C         -4.04748       -0.44839       -0.58286
C         -2.87995        0.39193       -0.55877
C         -2.82046        1.69225       -1.14792
N         -2.79369        2.71991       -1.64544
C         -1.85440       -0.42713        0.02020
C         -0.43813       -0.22218        0.31873
C          0.11440        1.10180        0.53193
N         -0.63233        1.88503        0.76696
C          1.49861        1.29520        0.68775
C          1.93668        2.57299        1.22185
N          2.08858        3.67690        0.96689
C          2.55284        0.40084        0.16730
N          3.61353        0.73977        0.17986
H          1.07203       -2.47506       -0.92571
H         -0.09415       -3.41012        1.48875
H         -4.99751       -0.07852       -0.99943
H         -0.40505        2.62084        0.09624
H         -0.56740        2.31944        1.68793
H          4.51466        0.27598        0.06820
H          3.77533        1.72838       -0.01124
