33
Coordinates from ORCA-job ./opt_b97-3c_parallel
N          5.96620       -0.18991       -0.11247
C          4.82422       -0.18703       -0.07095
C          3.37569       -0.19512       -0.03021
C          2.80890       -1.45826       -0.12767
C          1.47913       -1.85381       -0.09145
C          0.28779       -1.10778       -0.00843
C         -0.94066       -1.84041        0.01849
C         -0.97929       -3.29193        0.01414
N         -1.02247       -4.43513        0.00542
C         -2.18287       -1.18475        0.05888
N         -3.37801       -1.85951        0.08878
C         -2.18439        0.20045        0.04138
C         -3.30082        1.09258        0.05559
N         -4.65617        1.15253        0.19798
N         -2.40913        1.78144       -0.02193
C         -1.40389        2.28654       -0.10627
N         -1.12428        3.58667       -0.41421
C         -1.03657        0.90741        0.00946
C          0.23657        0.30987        0.02679
C          1.31107        1.20991        0.10315
C          2.68997        1.01534        0.10780
N          3.41978        2.17051        0.24920
H          3.51095       -2.28537       -0.22765
H          1.40916       -2.93363       -0.15928
H         -4.22813       -1.34321       -0.10824
H         -3.37527       -2.85872       -0.08777
H         -5.09675        2.04960        0.36808
H         -5.15587        0.32184        0.49485
H         -1.88806        4.20589       -0.66040
H         -0.21051        3.80855       -0.79445
H          1.04088        2.25646        0.19970
H          4.41443        2.09099        0.43533
H          2.94608        3.00497        0.57748
