33
Coordinates from ORCA-job ./opt_b97-3c_parallel
N         -5.59984       -1.90757       -0.42812
C         -4.47445       -1.94542       -0.23400
C         -3.31540       -1.12915       -0.05447
C         -1.90390       -1.38238       -0.05265
C         -1.04887       -0.28656       -0.00376
C         -1.70830        0.98315        0.04749
C         -0.86885        2.12675        0.21464
N         -1.45677        3.34677        0.38704
C          0.51405        2.00586        0.17520
C          1.17166        0.76138        0.03435
C          2.60048        0.73933       -0.05678
C          3.30239        2.01330       -0.00707
N          3.86612        3.00758        0.03211
C          3.44709       -0.39061       -0.24121
N          4.80015       -0.21399       -0.41380
C          3.06881       -1.73452       -0.27613
C          1.76526       -2.26607       -0.03653
N          1.54782       -3.55674        0.34695
N          0.88894       -1.62138       -0.03885
C          0.35548       -0.39437       -0.01278
C         -2.94718        0.26245       -0.08601
N         -3.89201        1.23655       -0.25568
H         -1.53781       -2.40539       -0.09762
H         -2.44492        3.37393        0.61477
H         -0.88045        4.12298        0.69288
H          1.06191        2.93869        0.26620
H          5.19979        0.70684       -0.26328
H          5.41484       -1.01900       -0.36828
H          3.80952       -2.51614       -0.43639
H          2.33602       -4.16139        0.55084
H          0.63359       -3.83444        0.68487
H         -3.58434        2.17643       -0.48138
H         -4.83106        0.96227       -0.52481
