31
Coordinates from ORCA-job ./opt_b97-3c_parallel
N          4.61606       -2.38453       -0.30157
C          3.78875       -1.60536       -0.17734
C          2.72913       -0.62341       -0.03708
C          1.44515       -1.16261       -0.03417
C          0.15850       -0.58492        0.03979
C         -0.91645       -1.53205        0.08373
N         -0.70537       -2.88729        0.20850
C         -2.25333       -1.12632        0.03020
C         -3.36908       -2.04768        0.05956
N         -4.25604       -2.76761        0.09294
C         -2.49104        0.22337       -0.06431
C         -3.71147        0.92872       -0.16358
C         -3.26044        2.29491       -0.21598
N         -2.14027        2.36307       -0.15568
C         -1.51385        1.16354       -0.05210
C         -0.13496        0.81728        0.03956
C          0.82867        1.86299        0.13796
N          0.44176        3.17555        0.23858
C          2.22053        1.79143        0.19863
C          3.08664        0.71537        0.10735
N          4.41805        1.05087        0.16664
H          1.48915       -2.24184       -0.13395
H          0.20569       -3.21173        0.51158
H         -1.50357       -3.47981        0.41362
H         -4.73413        0.56752       -0.20580
H         -3.83757        3.20777       -0.30304
H          1.14163        3.90303        0.14789
H         -0.52436        3.42082        0.05521
H          2.72853        2.75063        0.31243
H          5.11700        0.34408       -0.03816
H          4.68850        2.02726        0.12693
