26
Coordinates from ORCA-job ./opt_b97-3c_parallel
N          3.69927       -1.79831        0.00187
C          2.74448       -0.82164        0.01938
C          1.33638       -1.11747        0.03390
C          0.31243       -0.15895        0.01735
C          0.52320        1.24769       -0.00967
C          1.79662        1.82801       -0.01438
C          3.04009        1.10612        0.01055
N          3.40237        0.06310        0.01343
N         -0.52072        2.12440       -0.02947
C         -1.79276        1.66429       -0.02167
C         -2.04950        0.30145        0.01090
C         -3.25246       -0.38257        0.02850
N         -4.45243        0.26918        0.01100
C         -3.01153       -1.81065        0.07421
C         -1.56298       -1.86758        0.05592
C         -1.01831       -0.59206        0.02824
H          3.43036       -2.76712       -0.12557
H          4.67355       -1.54979       -0.12931
H          1.12890       -2.18294        0.05628
H          1.91663        2.90891       -0.03094
H          4.04759        1.50347        0.04901
H         -2.58628        2.40838       -0.03883
H         -4.46871        1.26811        0.18238
H         -5.29642       -0.26186        0.19541
H         -3.71933       -2.62197       -0.06075
H         -0.94669       -2.76128        0.06802
