33
Coordinates from ORCA-job ./opt_b97-3c_parallel
N          4.42872        3.41994        1.40797
C          3.74303        2.61355        0.97717
C          2.86750        1.59251        0.45363
C          3.44123        0.34812        0.25565
C          2.87026       -0.76566       -0.34409
C          3.83515       -1.79722       -0.67172
N          4.60516       -2.60020       -0.93422
C          1.50324       -0.99918       -0.58040
N          1.21480       -2.08590       -1.37467
C          0.40437       -0.19339       -0.20319
C          0.43649        1.22307       -0.16136
C          1.57785        1.99450        0.12408
C         -0.77829        1.94390       -0.34465
N         -0.76384        3.30047       -0.57608
C         -2.02570        1.30198       -0.32314
C         -3.24860        2.05945       -0.49286
N         -4.20237        2.67291       -0.63638
C         -2.04370       -0.06619       -0.06865
C         -3.11534       -0.92182        0.20009
C         -4.51455       -0.60848        0.34623
N         -5.62458       -0.37234        0.48045
C         -2.59384       -2.17098        0.47680
C         -1.21627       -2.10265        0.35788
C         -0.36746       -3.17525        0.81787
N          0.29315       -4.03514        1.17909
C         -0.86465       -0.79487       -0.01877
H          4.50280        0.27544        0.49701
H          1.94390       -2.76906       -1.55534
H          0.25052       -2.37527       -1.49055
H          1.43727        3.06549        0.24614
H         -1.62795        3.73976       -0.87650
H          0.10210        3.72230       -0.89365
H         -3.16203       -3.03624        0.81168
