26
Coordinates from ORCA-job ./opt_b97-3c_parallel
N         -2.20151       -3.77206       -0.08013
C         -1.99824       -2.64736       -0.03994
C         -1.76536       -1.21814        0.01396
C         -2.95342       -0.47431        0.13193
C         -3.10990        0.90869        0.19265
C         -2.05046        1.86280        0.09665
N         -2.26221        3.18619       -0.15252
N         -0.98713        1.62207        0.08292
C         -0.08821        0.63010        0.03108
C         -0.42716       -0.74551       -0.02750
N          0.57004       -1.68337       -0.11436
C          1.87148       -1.32092       -0.13180
N          2.79783       -2.31792       -0.22781
C          2.22664        0.01862       -0.05307
C          3.50640        0.64473       -0.04959
N          2.76909        1.50423        0.01952
C          1.90459        2.23658        0.07820
C          1.26981        0.96109        0.02359
H         -3.88304       -1.03852        0.18566
H         -4.10647        1.33117        0.29808
H         -3.19879        3.51739       -0.35535
H         -1.48108        3.78063       -0.40535
H          3.77283       -2.10240       -0.05513
H          2.48925       -3.27832       -0.12435
H          4.48090        0.19138        0.08438
H          1.45498        3.20855        0.24142
