29
Coordinates from ORCA-job ./opt_b97-3c_parallel
N         -5.58597        1.47420       -0.00717
C         -4.53688        1.02128       -0.01612
C         -3.20454        0.46562       -0.02647
C         -2.11986        1.34881       -0.00172
C         -0.75597        1.00761       -0.01914
C          0.15175        2.07242        0.03209
C          1.52505        1.85026        0.02324
C          2.01151        0.54838       -0.03839
C          3.41782        0.26073       -0.04551
C          4.60070        1.05534        0.07245
N          5.41007        1.82932       -0.15638
C          2.99023       -1.11737       -0.09519
N          4.04723       -1.98319       -0.02729
C          1.73376       -1.82163       -0.16677
C          1.13267       -0.52055       -0.09592
C         -0.25432       -0.30943       -0.08718
C         -1.14099       -1.44457       -0.15614
N         -2.21323       -1.70529       -0.11231
C         -3.03428       -0.96962       -0.05745
N         -4.05598       -1.87131        0.07200
H         -2.36381        2.40916        0.03649
H         -0.20846        3.09784        0.08207
H          2.20947        2.69428        0.06499
H          3.89807       -2.96453       -0.23331
H          4.98690       -1.61084       -0.11988
H          1.44721       -2.67274        0.44344
H         -0.91873       -2.49870       -0.03379
H         -5.01712       -1.54859        0.04280
H         -3.87966       -2.86057       -0.06366
