28
Coordinates from ORCA-job ./opt_b97-3c_parallel
N          3.86301       -2.71843        0.31297
C          3.13402       -1.84563        0.19636
C          2.20281       -0.75286        0.03427
C          2.84170        0.38779       -0.56896
N          2.67788        1.47490       -0.44853
C          1.75029        1.93451       -0.06763
N          2.25738        2.97776        0.65615
C          0.35263        1.57292       -0.07499
C         -0.57246        2.61162       -0.25382
C         -1.94121        2.36312       -0.25673
C         -2.37977        1.05788       -0.09169
N         -3.66033        0.64146       -0.13260
C         -3.57041       -0.47362       -0.02804
C         -2.28618       -1.11968        0.13692
C         -2.64151       -2.50648        0.11998
N         -2.46685       -3.52395       -0.36999
C         -1.47682        0.04664        0.10132
C         -0.07952        0.23646        0.11809
C          0.82639       -0.83823        0.31632
N          0.37830       -2.02958        0.82553
H          3.61525        0.40492       -1.32808
H          3.23176        3.23661        0.54624
H          1.62904        3.65307        1.07620
H         -0.22302        3.63181       -0.39580
H         -2.65100        3.17318       -0.40791
H         -4.56892       -0.88990       -0.11557
H          1.06700       -2.71098        1.12785
H         -0.52739       -2.05065        1.28038
