28
Coordinates from ORCA-job ./opt_b97-3c_parallel
N          4.40679        0.45248        0.25009
C          3.08384        0.13314        0.11486
C          2.77365       -1.21409        0.11365
C          1.53298       -1.81160       -0.02651
C          0.25098       -1.25339       -0.08450
C         -0.74704       -2.24731       -0.15981
C         -2.10072       -1.94958       -0.15294
C         -2.45127       -0.62583       -0.02011
C         -3.72677       -0.10942        0.12000
C         -3.58652        1.25271        0.31121
C         -2.23258        1.55746        0.27407
C         -1.50520        0.38342        0.03698
C         -0.10836        0.12510       -0.06364
C          0.81063        1.20194       -0.17202
N          0.36078        2.45545       -0.48732
C          2.20362        1.18810       -0.07396
H          4.65467        1.41963        0.42743
H          5.04747       -0.26586        0.56883
H          3.60982       -1.90405        0.21125
H          1.59318       -2.89794       -0.04128
H         -0.47560       -3.29975       -0.21274
H         -2.85213       -2.73419       -0.19702
H         -4.65814       -0.67078        0.12429
H         -4.39360        1.95743        0.49543
H         -1.84797        2.55347        0.46559
H         -0.58023        2.53576       -0.85581
H          1.04033        3.13796       -0.80328
H          2.68707        2.16284       -0.14539
