30
Coordinates from ORCA-job ./opt_b97-3c_parallel
N         -1.88299       -3.77440       -0.03153
C         -1.25775       -2.81799        0.01177
C         -0.44973       -1.62062        0.06509
C          0.92605       -1.77610        0.12569
C          1.83110       -0.66307        0.12112
C          3.25971       -0.60483        0.01560
N          4.17307       -1.61863        0.04043
C          3.52653        0.80211       -0.07051
C          2.32985        1.59474       -0.13197
N          2.57166        2.88638       -0.50519
C          1.26054        0.65664        0.08238
C         -0.18779        0.78803        0.16719
C         -0.65814        2.10411        0.35218
C         -1.97036        2.58335        0.46335
C         -3.15247        1.85473        0.35033
C         -3.21043        0.45709        0.05340
N         -4.29119       -0.14711       -0.51617
N         -2.35921       -0.22609        0.05853
C         -1.02129       -0.34350        0.08937
H          1.37354       -2.76774        0.12881
H          3.86625       -2.54442        0.31808
H          5.15441       -1.38780        0.15053
H          4.52994        1.21664       -0.09608
H          3.50400        3.13496       -0.81679
H          1.79490        3.44295       -0.84489
H          0.09533        2.87930        0.45424
H         -2.08025        3.64829        0.65266
H         -4.10895        2.35918        0.46562
H         -4.28184       -1.14914       -0.67180
H         -5.17896        0.33935       -0.56442
