29
Coordinates from ORCA-job ./opt_b97-3c_parallel
N          4.22301        2.92417       -0.50331
C          3.47103        2.07466       -0.36649
C          2.51154        1.01278       -0.18004
C          1.15070        1.32532       -0.25875
C          0.07742        0.42813       -0.10223
C          0.20310       -0.97461        0.04275
C          1.49726       -1.61637       -0.06268
N          1.75057       -2.68364       -0.88400
N          2.55372       -1.33032        0.09726
C          2.98779       -0.31325        0.13600
N          4.21547       -0.58219        0.67753
C         -0.96163       -1.74740        0.26428
N         -0.91706       -3.09823        0.46294
N         -2.20873       -1.22593        0.30649
C         -2.27444        0.10204        0.11960
C         -3.42606        0.91406        0.12122
C         -4.84215        0.80109        0.25885
N         -5.96963        0.63579        0.16767
C         -2.75447        2.17684       -0.09222
N         -1.63213        2.22904       -0.19329
C         -1.22258        0.94597       -0.07426
H          0.91096        2.37317       -0.42740
H          2.67196       -3.10729       -0.88020
H          0.97444       -3.24734       -1.21389
H          4.91171        0.15423        0.71983
H          4.53955       -1.54164        0.72351
H         -0.02259       -3.52737        0.67395
H         -1.75941       -3.56705        0.77765
H         -3.17372        3.17206       -0.17761
