26
Coordinates from ORCA-job ./opt_b97-3c_parallel
N          4.21328        1.65157        0.14275
C          3.31613        0.94585        0.09577
C          2.18747        0.04228        0.05667
C          2.64415       -1.31386        0.21430
N          2.27365       -2.34471        0.08564
C          1.21369       -2.53469       -0.14965
C         -0.05926       -1.86608       -0.05433
C         -1.05166       -2.87217       -0.34741
N         -1.82187       -3.67791       -0.60025
C         -0.24925       -0.46809        0.01295
C          0.84264        0.45480       -0.01091
N          0.63406        1.80230       -0.09827
C         -0.61317        2.30871       -0.11254
N         -0.73780        3.66185       -0.22539
C         -1.70649        1.47121        0.01397
C         -3.05076        1.78773        0.11753
C         -3.73183        0.59157        0.28211
C         -2.80742       -0.44650        0.26265
C         -1.53761        0.10394        0.08173
H          3.59084       -1.66609        0.61064
H          1.42502       -3.57755       -0.36619
H         -1.64911        4.04079       -0.45630
H          0.07839        4.18968       -0.51445
H         -3.48692        2.78360        0.10897
H         -4.80394        0.48505        0.42803
H         -3.06669       -1.48807        0.41539
