29
Coordinates from ORCA-job ./opt_b97-3c_parallel
N         -4.68226       -1.98335        0.00573
C         -3.85571       -1.19387        0.00385
C         -2.79776       -0.21192        0.00149
C         -1.47753       -0.67415        0.00239
C         -0.30798        0.10906        0.00105
C         -0.29826        1.52055       -0.00119
C         -1.51234        2.29311       -0.00246
N         -2.60847        2.16328       -0.00218
C         -3.13430        1.19313       -0.00168
N         -4.41493        1.67647       -0.01076
C          0.91347        2.22362       -0.00258
C          2.13794        1.55276       -0.00115
C          3.36845        2.30544       -0.00288
N          4.33559        2.91551       -0.00351
C          2.13509        0.15879        0.00076
N          3.20720       -0.66337        0.00148
C          2.74685       -1.68654        0.00272
N          3.64654       -2.71588        0.00282
C          1.31171       -1.89252        0.00335
C          0.77828       -3.22203        0.00571
N          0.07255       -4.12123        0.00964
C          0.94557       -0.52004        0.00200
H         -1.36781       -1.75152        0.00448
H         -1.63070        3.37124       -0.00353
H         -4.59402        2.67409       -0.00232
H         -5.20301        1.03742       -0.00251
H          0.90187        3.31214       -0.00421
H          3.32818       -3.67902        0.01239
H          4.64293       -2.52844        0.01105
