33
Coordinates from ORCA-job ./opt_b97-3c_parallel
N         -3.93203        2.23698        1.04384
C         -3.10317        1.52228        0.71287
C         -2.04521        0.63449        0.27840
C         -2.49726       -0.52066       -0.46443
N         -3.41047       -0.47598       -1.48159
N         -2.17706       -1.57295       -0.33711
C         -1.22495       -1.92859        0.10097
N         -1.63143       -2.86249        1.01536
C          0.12317       -1.39875        0.02315
C          1.19142       -2.30556       -0.15595
N          0.98272       -3.65153       -0.29423
C          2.50752       -1.85606       -0.18787
C          2.73114       -0.49485       -0.11799
C          3.94260        0.15415       -0.27289
C          3.66932        1.51003       -0.30383
C          2.29953        1.68725       -0.14924
C          1.68134        2.96337       -0.41606
N          1.20684        3.97748       -0.64416
C          1.70401        0.42450        0.02146
C          0.36169       -0.00315        0.17438
C         -0.68412        0.88147        0.54617
N         -0.39382        1.96228        1.33973
H         -3.80584       -1.34493       -1.82246
H         -3.95366        0.36969       -1.61757
H         -0.93011       -3.42804        1.48075
H         -2.56729       -3.24563        0.94065
H          0.03680       -3.98321       -0.45222
H          1.75502       -4.24313       -0.58005
H          3.33626       -2.54789       -0.32371
H          4.91239       -0.31183       -0.42914
H          4.39398        2.29543       -0.50502
H         -1.11319        2.65626        1.51482
H          0.57394        2.21730        1.50075
