28
Coordinates from ORCA-job ./opt_b97-3c_parallel
N         -4.39024        1.29921        0.08854
C         -3.29144        0.98819        0.05119
C         -1.90213        0.58260        0.01702
C         -0.83625        1.48682        0.02473
N         -1.17215        2.81951        0.11009
C          0.52328        1.04201       -0.02475
C          1.47182        2.08180       -0.14047
C          2.85463        2.07117       -0.17726
C          3.70829        1.00117       -0.04828
C          3.36934       -0.32601        0.10309
C          2.11735       -0.94184        0.11293
N          2.28582       -2.29313        0.27586
C          0.81524       -0.36261        0.01923
C         -0.31523       -1.22873       -0.02223
N         -0.41447       -2.58161       -0.07675
C         -1.47095       -2.96410       -0.10787
C         -2.42664       -1.88766       -0.08144
C         -1.58511       -0.75305       -0.03395
H         -0.45676        3.47636        0.39989
H         -2.13494        3.05540        0.32667
H          1.11570        3.09990       -0.24961
H          3.33270        3.04090       -0.29816
H          4.77192        1.22851       -0.06258
H          4.23529       -0.97922        0.20758
H          1.49198       -2.90891        0.14310
H          3.21507       -2.68730        0.18622
H         -1.63887       -4.03334       -0.15402
H         -3.50915       -1.96314       -0.10721
