31
Coordinates from ORCA-job ./opt_b97-3c_parallel
N         -5.64016       -0.87990       -0.55098
C         -4.84592       -0.43100        0.13908
C         -3.46057       -0.08915        0.24824
C         -2.71159        1.13550        0.26574
N         -3.33477        2.35534        0.28922
C         -1.32969        1.01268        0.21965
C         -0.45577        2.08768        0.15581
N          0.87612        1.92564        0.04046
C          1.47558        0.69811        0.01778
C          2.88108        0.70655       -0.13661
C          3.56454        1.97897       -0.28770
N          4.12071        2.97076       -0.40876
C          3.76396       -0.37345       -0.18801
C          3.52587       -1.73044       -0.04558
C          2.31970       -2.37381        0.17595
N          2.37364       -3.73246        0.31729
C          1.05999       -1.79538        0.24673
C          0.67001       -0.45887        0.14758
C         -0.76844       -0.30093        0.20223
C         -2.15443       -0.66294        0.02191
N         -2.18756       -1.92133       -0.51694
H         -2.78706        3.19018        0.11331
H         -4.33384        2.39460        0.11738
H         -0.80448        3.11840        0.16272
H          4.81386       -0.13012       -0.34716
H          4.40948       -2.36321       -0.10782
H          3.27818       -4.17222        0.44702
H          1.55682       -4.21601        0.67493
H          0.24975       -2.50517        0.40278
H         -1.32818       -2.32930       -0.86861
H         -3.06971       -2.28236       -0.86541
