27
Coordinates from ORCA-job ./opt_b97-3c_parallel
N         -5.38109        1.17869       -0.50480
C         -4.31793        0.79694       -0.33526
C         -2.96883        0.35609       -0.13534
C         -2.88281       -1.00306       -0.27567
C         -1.54324       -0.85896       -0.06528
C         -0.63695       -1.88476       -0.02085
N         -1.14674       -3.05700        0.40955
C          0.70092       -1.59982       -0.08353
C          1.59889       -2.71146       -0.23471
N          2.34639       -3.57061       -0.32664
C          1.20215       -0.25034        0.03756
N          2.58917       -0.07378       -0.06272
C          3.11042        1.20315        0.02366
N          4.16770        0.95105       -0.16418
N          2.94106        2.56131        0.20345
C          1.61238        2.88647        0.39395
N          0.60202        2.07760        0.36384
C          0.24757        0.83804        0.20862
C         -1.15942        0.50514        0.11533
C         -2.16087        1.42695        0.13495
H         -3.48588       -1.66692        0.34162
H         -2.09830       -3.32227        0.15769
H         -0.57917       -3.90372        0.38362
H          4.59201        0.11493       -0.56531
H          4.80899        1.71697       -0.36715
H          1.48205        3.96617        0.56814
H         -2.13826        2.29423       -0.52256
