26
Coordinates from ORCA-job ./opt_b97-3c_parallel
N         -5.11992       -1.00553        0.07360
C         -4.13521       -0.42673        0.05231
C         -2.88617        0.28929        0.02605
C         -2.74055        1.67126       -0.01306
C         -1.38054        1.96568       -0.03179
C         -0.69220        0.75871       -0.00569
C         -1.61385       -0.26196        0.02753
C         -1.21387       -1.58832        0.05048
C          0.15576       -1.86079        0.03113
C          1.12919       -0.83325       -0.00156
C          2.50149       -1.18737       -0.02421
N          2.87746       -2.50099       -0.12163
C          3.56272       -0.27820        0.04582
C          3.42023        1.14342        0.20752
N          2.63549        1.90997        0.09408
C          1.57995        1.63531       -0.06830
C          0.68028        0.51113       -0.01606
H         -3.54955        2.39753       -0.02916
H         -0.94387        2.96069       -0.06457
H         -1.94180       -2.39569        0.08112
H          0.44644       -2.90712        0.05513
H          3.84727       -2.70874       -0.33232
H          2.18046       -3.18032       -0.40448
H          4.59660       -0.61580        0.02461
H          4.15460        1.85319        0.57130
H          1.41429        2.61414       -0.50471
