29
Coordinates from ORCA-job ./opt_b97-3c_parallel
N         -1.49107       -4.44365        0.03320
C         -1.33585       -3.31084        0.06337
C         -1.15021       -1.87861        0.11612
C         -2.31018       -1.12784        0.24293
C         -2.24156        0.29197        0.33969
C         -2.94483        1.50872        0.03090
N         -4.30079        1.34976        0.02206
C         -2.41817        2.81354       -0.26308
C         -1.10228        2.25035       -0.26536
C         -0.97388        0.91340        0.09967
C          0.22915        0.16260        0.10937
C          1.48456        0.82154        0.18487
C          1.68084        2.13420        0.76779
N          1.84927        3.16877        1.22477
C          2.77576        0.16718        0.11043
N          3.95863        0.77639       -0.23336
N          3.23042       -0.83276        0.02257
C          2.61439       -1.73181       -0.13950
C          1.23775       -2.11541       -0.02045
C          0.12171       -1.26095        0.06861
H         -3.28706       -1.60346        0.28951
H         -4.88796        2.17586       -0.00309
H         -4.69375        0.49497        0.39984
H         -2.81881        3.49779       -1.00397
H         -0.28974        2.85670       -0.65162
H          4.82449        0.25246       -0.16388
H          4.02439        1.78630       -0.16725
H          3.41719       -2.26164       -0.64038
H          1.18958       -3.20073       -0.04583
