32
Coordinates from ORCA-job ./opt_b97-3c_parallel
N         -6.10499       -1.91043       -0.26200
C         -4.98321       -1.72160       -0.15119
C         -3.85597       -0.85558       -0.01202
C         -2.47222       -1.29998       -0.00891
C         -1.55150       -0.25708        0.03365
C         -2.28996        0.88308        0.05043
C         -1.66060        2.10681        0.08373
N         -0.31637        2.16417        0.07446
C          0.48477        1.04620        0.04692
C          1.88297        1.30697        0.00514
C          2.25985        2.72329        0.01136
N          2.57199        3.82383        0.01935
C          2.97512        0.40111       -0.05837
N          4.23645        0.96569       -0.17201
C          2.95301       -1.01067       -0.01135
C          4.23988       -1.70136       -0.06069
N          5.24426       -2.24552       -0.11192
C          1.82689       -1.84277        0.08483
N          2.00758       -3.20535        0.16882
C          0.48671       -1.48014        0.08975
C         -0.13775       -0.23295        0.04872
C         -3.63781        0.57784        0.02859
N         -4.59307        1.55535        0.04208
H         -2.20159       -2.34989       -0.05738
H         -2.20050        3.05140        0.10397
H          4.34769        1.97244       -0.10814
H          5.06130        0.37720       -0.11739
H          2.93766       -3.59262        0.04332
H          1.20892       -3.82434        0.08545
H         -0.17441       -2.33657        0.14709
H         -5.55640        1.29535       -0.14265
H         -4.31621        2.51683       -0.12103
