26
Coordinates from ORCA-job ./opt_b97-3c_parallel
N         -4.09537       -1.01620        0.32915
C         -2.88247       -0.39922        0.19963
C         -3.05312        1.03439        0.16887
C         -1.62879        1.13171        0.07235
N         -1.04755        2.34585       -0.00065
C          0.30174        2.37528       -0.06152
C          1.11091        1.23122       -0.03956
C          2.49983        1.43726       -0.04608
C          3.47339        0.44724        0.09667
C          3.17764       -0.93950        0.33339
N          2.27412       -1.56885        0.22600
C          1.24360       -1.25880       -0.02282
N          0.95723       -2.32398       -0.83356
C          0.47968       -0.02991        0.00209
C         -0.92046       -0.05577        0.06818
C         -1.71594       -1.24723        0.14262
H         -4.90683       -0.45499        0.56486
H         -4.12226       -2.00845        0.53722
H         -3.77041        1.56991       -0.44498
H          0.73731        3.37180       -0.10431
H          2.86029        2.45935       -0.13699
H          4.52791        0.71563        0.10083
H          3.86258       -1.74478        0.57184
H          0.03040       -2.40578       -1.23549
H          1.51741       -3.16626       -0.76355
H         -1.52991       -2.10015        0.78711
