26
Coordinates from ORCA-job ./opt_b97-3c_parallel
N         -5.82666        0.01270       -0.00257
C         -4.68520        0.07379       -0.00449
C         -3.24671        0.13336       -0.00825
C         -2.67975        1.45489       -0.06062
N         -1.67230        1.90399       -0.02052
C         -0.71659        1.35541        0.02028
C         -0.22474        0.00099        0.01136
C         -1.08548       -1.11822        0.01616
C         -0.52368       -2.40657        0.01892
C          0.85923       -2.60007        0.01154
C          1.69403       -1.48992        0.00259
N          3.04291       -1.48619       -0.00468
C          3.27729       -0.38636       -0.00813
N          4.61165       -0.09466       -0.01310
C          2.25726        0.64363       -0.00611
C          2.48808        2.05525       -0.01408
N          2.63230        3.18868       -0.04377
C          1.15054       -0.23814        0.00257
C         -2.48839       -1.04088        0.01843
H         -3.18278        2.39601       -0.25344
H         -0.27781        2.23570        0.47763
H         -1.16929       -3.28224        0.02424
H          1.27591       -3.60458        0.01172
H          5.28972       -0.83966       -0.12735
H          4.92264        0.86389       -0.12678
H         -3.04289       -1.97744        0.03745
