21
Coordinates from ORCA-job ./opt_b97-3c_parallel
N          4.28553       -2.08429       -0.02606
C          3.44080       -1.31550       -0.00471
C          2.35418       -0.38778        0.01592
C          2.58364        1.02999        0.06658
N          1.97724        1.95372        0.09378
C          0.94975        2.34624        0.01828
C         -0.08183        1.34397        0.01360
C         -1.34594        2.04762        0.01331
N         -2.54539        1.43594        0.01198
C         -2.56530        0.09129        0.00755
N         -3.64285       -0.75562        0.00813
C         -3.09413       -2.03791        0.00225
N         -1.70027       -2.00926       -0.00280
C         -1.37969       -0.67641        0.00032
C         -0.12511       -0.10439        0.00343
C          1.07336       -0.92371       -0.00653
H          3.63023        1.37158        0.08959
H          1.12295        3.42418       -0.12810
H         -1.63394        3.11050        0.01283
H         -3.61818       -3.00681        0.00219
H          0.95677       -2.00427       -0.03035
