31
Coordinates from ORCA-job ./opt_b97-3c_parallel
N         -4.92500       -2.96430        0.58352
C         -4.02059       -2.28004        0.44104
C         -2.89013       -1.40352        0.24860
C         -3.07653       -0.02850        0.39463
C         -2.14439        1.02194        0.26231
C         -2.77551        2.27765        0.61012
N         -3.29318        3.25198        0.90963
C         -0.73414        0.94455        0.01214
C          0.05201        2.09617       -0.28586
C         -0.46165        3.35536       -0.77796
N         -0.84287        4.35292       -1.18557
C          1.44180        2.03441       -0.30078
C          2.14742        0.86778        0.11949
C          3.30885        0.02005        0.08743
N          4.31873        0.93952        0.01681
C          3.53830       -1.40102        0.10331
C          4.59545       -2.30681        0.42309
N          5.72032       -2.37018        0.61997
C          2.10913       -1.50631        0.05335
C          1.36807       -0.32892        0.05451
C         -0.03893       -0.29168        0.04060
N         -0.68946       -1.46292        0.01444
C         -1.62773       -2.01405       -0.04111
N         -1.46593       -3.14787       -0.78544
H         -4.09978        0.25967        0.64032
H          2.04655        2.89064       -0.59426
H          5.27353        0.62349        0.15261
H          4.10865        1.91469        0.19567
H          1.64463       -2.48914        0.02493
H         -0.53609       -3.52718       -0.92146
H         -2.25401       -3.77403       -0.91289
