32
Coordinates from ORCA-job ./opt_b97-3c_parallel
N          1.85986       -3.98789       -0.23531
C          1.26687       -3.01139       -0.19310
C          0.49977       -1.78276       -0.13379
C         -0.89771       -1.85822       -0.10683
N         -1.57208       -3.05249       -0.14607
C         -1.60032       -0.66661        0.00257
C         -3.01391       -0.49917        0.11669
N         -4.28191       -1.00157        0.10388
N         -2.60827        0.54812        0.21425
C         -2.01311        1.50209        0.28499
N         -2.85002        2.54956        0.54066
C         -0.97940        0.54087        0.03938
C          0.42661        0.68615       -0.05185
C          1.05300        1.96977       -0.12465
C          0.27414        3.17793       -0.28278
N         -0.30470        4.15338       -0.42700
C          2.43050        2.26891       -0.16296
C          3.52281        1.40585       -0.09797
C          3.45239       -0.01465        0.02094
N          4.44238       -0.77667        0.56466
N          2.49534       -0.52705       -0.04447
C          1.15578       -0.53016       -0.08609
H         -1.04658       -3.91357       -0.03613
H         -2.55940       -3.06059        0.08530
H         -5.06928       -0.36370        0.08132
H         -4.43669       -1.95591       -0.20117
H         -3.85464        2.41833        0.55381
H         -2.47489        3.48734        0.64028
H          2.70578        3.31893       -0.25722
H          4.53118        1.81053       -0.14480
H          5.37363       -0.39344        0.68012
H          4.32606       -1.78248        0.62466
