32
Coordinates from ORCA-job ./opt_b97-3c_parallel
N         -5.08316       -1.58104        1.01706
C         -4.06099       -1.66147        0.51134
C         -2.97804       -0.75069        0.30954
C         -1.57482       -1.04757        0.29680
C         -0.68288       -0.08101       -0.16717
C         -1.35060        1.15362       -0.46257
C         -0.58484        2.35114       -0.37250
N         -1.18389        3.57293       -0.48654
C          0.78291        2.25863       -0.18840
C          1.46264        1.02970       -0.11628
C          2.84123        1.22082        0.05613
C          3.87507        0.31023        0.22183
N          5.11938        0.83044        0.44890
C          3.79449       -1.06639        0.13991
C          2.68501       -1.83651       -0.15320
C          1.34495       -1.47519       -0.31717
C          0.58835       -2.60257       -0.82278
N          0.01024       -3.50210       -1.22950
C          0.73974       -0.19381       -0.19141
C         -2.59177        0.60228        0.01307
N         -3.58839        1.50497        0.26064
H         -1.26689       -1.97337        0.77376
H         -2.14006        3.60756       -0.82297
H         -0.59863        4.38636       -0.64068
H          1.33480        3.19465       -0.12337
H          3.17541        2.25618        0.10900
H          5.87101        0.20735        0.72335
H          5.20720        1.81559        0.67339
H          4.72576       -1.61775        0.25840
H          2.92072       -2.89445       -0.26889
H         -4.41985        1.18623        0.74716
H         -3.34128        2.48595        0.33214
