28
Coordinates from ORCA-job ./opt_b97-3c_parallel
N         -2.64275       -3.37694       -0.23475
C         -2.90398       -2.28457       -0.03489
C         -2.37900       -0.96069        0.05140
C         -3.48031       -0.03052        0.15954
N         -3.27825        1.07269        0.24359
C         -1.93731        1.20397        0.19309
N         -1.20689        2.33137        0.25082
C          0.13959        2.23226        0.13675
N          0.74629        3.44228        0.32650
C          0.84036        1.00623       -0.05746
C          2.24328        0.95123       -0.29824
N          2.96262        2.06675       -0.63709
C          3.00663       -0.22170       -0.29746
C          2.52570       -1.52449        0.07719
N          3.34886       -2.46589        0.62511
N          1.53780       -2.01183        0.01864
C          0.58662       -1.49428       -0.19749
C          0.04682       -0.16615       -0.04266
C         -1.33229       -0.01108        0.07559
H         -4.54946       -0.20923        0.17445
H          1.72034        3.43411        0.60964
H          0.17125        4.20439        0.66799
H          2.44126        2.88768       -0.92711
H          3.87879        1.93270       -1.05047
H          4.06879       -0.19643       -0.53372
H          3.02221       -3.41795        0.74320
H          4.34767       -2.29392        0.67288
H          0.06552       -2.43837       -0.30918
