27
Coordinates from ORCA-job ./opt_b97-3c_parallel
N          4.01803        1.64908        0.48653
C          3.48607        0.78915       -0.04586
C          2.31907       -0.03818       -0.10708
C          2.89645       -1.36089       -0.00242
N          2.25553       -2.28184        0.04794
C          1.00304       -1.78486        0.01095
C         -0.16782       -2.52122        0.09981
C         -1.38895       -1.85067        0.09278
N         -2.53448       -2.59414        0.19100
C         -1.43618       -0.44691       -0.01507
C         -2.73693        0.17961       -0.04644
N         -3.22049        1.12110        0.26469
C         -2.66427        2.06959        0.35183
C         -1.38407        2.53868       -0.10510
C         -0.25692        1.72924       -0.28476
N          0.86679        2.41499       -0.65224
C         -0.24735        0.31728       -0.13410
C          0.95218       -0.42287       -0.10858
H          3.93029       -1.68305        0.07291
H         -0.12700       -3.60480        0.18877
H         -2.45961       -3.57510        0.43714
H         -3.40653       -2.11751        0.39377
H         -3.62543       -0.14052       -0.57957
H         -3.37934        2.58313        0.98447
H         -1.33332        3.61685       -0.24204
H          0.76947        3.38546       -0.93001
H          1.64790        1.89601       -1.03619
