28
Coordinates from ORCA-job ./opt_b97-3c_parallel
N          4.00456        1.43931        0.16085
C          3.11368        0.80391        0.06798
N          3.42467       -0.54486        0.04181
C          2.31483       -1.35965       -0.06695
N          2.00737       -2.41944       -0.10725
N          1.04381       -1.11822       -0.16945
C          0.25125       -0.07109       -0.17383
C          0.74614        1.24380       -0.06564
C         -0.13052        2.40280       -0.06813
C         -1.56027        2.19304       -0.12004
C         -2.00914        0.91201       -0.40686
C         -3.24722        0.27264       -0.13186
N         -4.31639        0.53328       -0.07632
N         -3.09249       -1.02990        0.11503
C         -1.80381       -1.42031        0.06044
N         -1.74066       -2.48650        0.34277
C         -1.17359       -0.23652       -0.28592
N          2.02519        1.50552        0.03281
H          4.85621        0.88146        0.13692
H          4.29042        2.41561        0.12654
H          2.90415       -2.29777        0.36322
H          2.12455       -3.22688       -0.71673
H          0.27483        3.41060       -0.03396
H         -2.26964        2.99158        0.08655
H         -5.26089        0.15321       -0.03199
H         -4.41608        1.54395       -0.16162
H         -0.72430       -2.59386        0.33059
H         -2.12878       -3.42743        0.39940
