25
Coordinates from ORCA-job ./opt_b97-3c_parallel
N         -4.66553       -2.45968       -0.00283
C         -3.71218       -1.82927       -0.00192
C         -2.51958       -1.02253       -0.00096
C         -1.31386       -1.79289        0.00048
N         -0.32208       -1.33847        0.00122
C          0.40514       -0.21502        0.00143
C         -0.15915        1.08419        0.00060
N          0.66660        2.17987        0.00084
C          2.01255        2.04165        0.00168
C          2.58335        0.77879        0.00248
C          3.95102        0.38384        0.00287
N          3.37026       -0.59121        0.00252
C          2.64443       -1.46248        0.00389
N          2.54178       -2.82242        0.00790
C          1.79976       -0.31360        0.00253
C         -1.55988        1.31509       -0.00050
C         -2.03575        2.68371       -0.00104
N         -2.43032        3.75631       -0.00152
C         -2.60387        0.37125       -0.00124
H         -1.19308       -2.87002       -0.00039
H          2.60663        2.95334        0.00153
H          4.83684        1.00714        0.00174
H          1.62819       -3.26267       -0.00470
H          3.37047       -3.40517       -0.00589
H         -3.61751        0.77135       -0.00213
