31
Coordinates from ORCA-job ./opt_b97-3c_parallel
N          5.29478       -0.99217       -0.57267
C          4.16535       -0.92434       -0.40556
C          2.73302       -0.85535       -0.19331
C          2.10483       -2.06877       -0.42093
C          0.84133       -2.42845       -0.01148
C         -0.20043       -1.61242        0.39633
N         -1.22519       -2.32966        0.95389
C         -0.31253       -0.21667        0.21546
C          0.77043        0.71792        0.16251
C          0.42650        2.11016        0.05457
N          1.32119        3.13013       -0.14754
C         -0.89293        2.55199        0.00572
C         -1.91623        1.63461        0.00615
N         -3.22488        1.90580       -0.15837
C         -3.69421        0.88822       -0.21104
C         -2.89211       -0.30550       -0.06976
C         -3.84563       -1.33593       -0.35022
N         -4.03872       -2.40835       -0.69530
C         -1.62157        0.31160        0.11419
C          2.14907        0.35235        0.23975
N          3.05710        1.26448        0.73290
H          2.72406       -2.89305       -0.77415
H          0.65254       -3.50175       -0.01435
H         -1.94702       -1.83309        1.46568
H         -1.07537       -3.30769        1.17726
H          2.26742        2.88855       -0.42490
H          0.96930        4.04351       -0.41170
H         -1.12358        3.60990       -0.10770
H         -4.75063        1.01279       -0.42699
H          4.00157        0.95528        0.93699
H          2.70576        2.08581        1.21519
