29
Coordinates from ORCA-job ./opt_b97-3c_parallel
N          5.44478       -0.98427        0.46673
C          4.66403       -0.18705        0.22165
C          3.28611        0.16243        0.08732
C          2.92189        1.53720       -0.15835
N          1.83224        1.79558       -0.26256
C          1.12243        0.64945       -0.12923
C          1.98562       -0.38448        0.09618
C          1.58383       -1.69036        0.30782
C          0.21954       -1.94603        0.25986
C         -0.69988       -0.91468        0.01455
C         -2.08478       -1.30421       -0.10263
N         -2.49334       -2.36530       -0.86491
N         -3.06327       -0.86702        0.16647
C         -3.26816        0.21263        0.28474
N         -4.40997        0.28233        1.03141
C         -2.58474        1.38585       -0.19236
C         -1.19900        1.49581       -0.35717
N         -0.78524        2.75350       -0.70779
C         -0.27597        0.43068       -0.16100
H          3.55529        2.41002       -0.26519
H          2.30436       -2.48343        0.49321
H         -0.13052       -2.96614        0.40368
H         -1.80877       -3.02109       -1.22500
H         -3.46839       -2.64186       -0.86070
H         -4.94447       -0.56009        1.21001
H         -4.86204        1.17706        1.18023
H         -3.23615        2.24191       -0.35656
H         -1.43859        3.52426       -0.62930
H          0.20692        2.96321       -0.67942
