28
Coordinates from ORCA-job ./opt_b97-3c_parallel
N         -3.83178        1.28041        0.34558
C         -2.80616        0.44016        0.01751
C         -1.43797        0.88024       -0.05138
C         -0.32434        0.02907       -0.04863
C         -0.39655       -1.38515       -0.02688
C         -1.59633       -2.10672       -0.06840
C         -2.90482       -1.51546       -0.15502
N         -3.35679       -0.51125       -0.07350
C          0.78717       -2.14133        0.02415
C          2.04202       -1.52810        0.04786
N          3.18400       -2.27568        0.10784
C          2.08419       -0.13767       -0.00239
C          3.21115        0.73586       -0.01184
N          2.32595        1.44002       -0.05830
C          1.33385        1.97665       -0.13883
N          0.99025        3.27900       -0.35023
C          0.95312        0.60348       -0.05689
H         -3.62911        2.21888        0.67065
H         -4.75298        0.89996        0.53050
H         -1.33257        1.96126       -0.05029
H         -1.60294       -3.19410       -0.06090
H         -3.84054       -1.98557       -0.43432
H          0.73163       -3.22809        0.04311
H          4.05677       -1.80940        0.32811
H          3.10624       -3.26373        0.32186
H          4.26433        0.48643        0.04013
H          0.05064        3.49065       -0.66684
H          1.71698        3.95341       -0.55987
