28
Coordinates from ORCA-job ./opt_b97-3c_parallel
N         -5.66985        0.45545        0.60326
C         -4.60873        0.10830        0.36213
C         -3.27775       -0.33804        0.10346
C         -2.96070       -1.64659       -0.14237
C         -1.59726       -1.53005       -0.24626
C         -0.70826       -2.63238       -0.47468
N          0.60944       -2.37194       -0.51182
C          1.12764       -1.13592       -0.37681
N          2.42202       -1.15622       -0.39430
C          3.36817       -0.51577        0.21429
N          3.93368       -1.16763        0.89883
C          3.22084        0.61666       -0.53245
C          2.28616        1.56330       -0.19883
N          2.94288        2.45249       -0.12255
C          0.84936        1.37322       -0.05615
C          0.08303        2.55952        0.18481
N         -0.48475        3.53478        0.36336
C          0.26750        0.02383       -0.18538
C         -1.09719       -0.25910       -0.10876
C         -2.17030        0.55407        0.11818
H         -3.41691       -2.44959        0.43353
H         -1.00216       -3.68601       -0.59932
H          4.55398       -0.47269        1.31285
H          4.37021       -2.07512        1.05713
H          3.78502        0.70203       -1.46697
H          2.32660        3.25737       -0.24080
H          3.86829        2.83796        0.06671
H         -2.25799        1.61442        0.30896
