30
Coordinates from ORCA-job ./opt_b97-3c_parallel
N          4.41057        2.40408        0.52676
C          3.62128        1.60092        0.32995
C          2.61678        0.58862        0.09733
C          3.20051       -0.59969       -0.46571
N          2.93783       -1.67107       -0.41790
C          1.99717       -2.05599        0.01027
C          0.61805       -1.62864        0.07647
C         -0.37290       -2.62869        0.09331
N         -0.04455       -3.95735        0.09795
C         -1.72242       -2.28889        0.12226
C         -2.08043       -0.95044        0.10598
N         -3.34257       -0.48059        0.05308
C         -3.17150        0.62338       -0.01897
N         -4.34108        1.30807       -0.21168
C         -1.85600        1.23455        0.00383
C         -1.81718        2.64125       -0.28269
N         -1.60456        3.65588       -0.76329
C         -1.11573        0.02326        0.13215
C          0.26912       -0.25535        0.16515
C          1.24123        0.76646        0.33335
N          0.87000        1.97940        0.84952
H          4.05259       -0.67985       -1.13159
H          2.40154       -2.95026       -0.45315
H          0.91603       -4.21455        0.30121
H         -0.76702       -4.63099        0.32848
H         -2.49144       -3.06007        0.12510
H         -5.19713        0.79219       -0.38396
H         -4.31058        2.28371       -0.48651
H         -0.03821        2.05884        1.29371
H          1.59908        2.61176        1.16290
