28
Coordinates from ORCA-job ./opt_b97-3c_parallel
N         -3.75631        2.79640        0.02162
C         -2.63182        2.60967       -0.04869
C         -1.67280        1.54756       -0.04936
C         -0.29413        1.91802       -0.04612
C          0.85659        1.06179       -0.03378
C          2.04311        1.77205        0.01088
N          3.33627        1.43015        0.06491
C          3.50498        0.07452        0.04492
N          4.59528        0.27502        0.09484
C          2.93863       -1.15828       -0.03050
C          1.62073       -1.38672       -0.08067
N          1.31076       -2.69406       -0.19442
C          0.63242       -0.38890       -0.05405
C         -0.73385       -0.76329       -0.05751
N         -1.33085       -1.96143       -0.06261
C         -2.69266       -1.69661       -0.06891
N         -3.38264       -2.55921       -0.07967
N         -3.02261       -0.43770       -0.06041
C         -1.85892        0.12566       -0.05465
H         -0.14463        2.99895       -0.05411
H          2.33439        2.83463        0.03661
H          5.26674        1.04423        0.04820
H          5.17169       -0.56393        0.17126
H          3.61253       -2.01657       -0.07126
H          2.03546       -3.40973       -0.12483
H          0.46985       -3.07839        0.23177
H         -4.38844       -2.38837       -0.07480
H         -3.27463       -3.57215       -0.14358
