30
Coordinates from ORCA-job ./opt_b97-3c_parallel
N         -5.47572        1.58978       -0.18534
C         -4.53429        0.94785       -0.09103
C         -3.34481        0.11690        0.01855
C         -3.68389       -1.21401        0.19679
C         -2.85317       -2.30343        0.28169
C         -1.47911       -2.35351        0.17856
C         -0.51101       -1.33911        0.04191
C          0.82979       -1.82858       -0.06223
N          1.12140       -3.17066       -0.16822
C          1.92582       -0.96364       -0.08236
C          3.29571       -1.42243       -0.17615
N          4.37442       -1.78981       -0.26348
C          1.66146        0.38063        0.01334
C          2.57262        1.46491        0.06704
C          3.91913        1.94238        0.06497
N          5.03333        1.87527        0.31030
C          1.63321        2.55153        0.17778
N          0.55623        2.24000        0.17877
C          0.40397        0.89730        0.06546
C         -0.76504        0.07494        0.02942
C         -2.05605        0.70271       -0.03615
N         -2.11819        2.06648       -0.22632
H         -4.74516       -1.45387        0.26178
H         -3.35129       -3.26142        0.41566
H         -1.15285       -3.38429        0.25623
H          2.06930       -3.43990       -0.41173
H          0.37579       -3.81310       -0.40982
H          1.81075        3.61810        0.25592
H         -3.01350        2.53401       -0.13258
H         -1.28301        2.62578       -0.11029
