28
Coordinates from ORCA-job ./opt_b97-3c_parallel
N          5.56947        1.51639       -0.00899
C          4.52708        1.04743        0.00451
C          3.20339        0.47275        0.02026
C          2.10797        1.34209       -0.01587
C          0.75245        0.97692        0.00518
C         -0.18342        2.01572       -0.05682
N         -1.51996        1.82590       -0.04701
C         -1.96598        0.55375        0.02987
C         -3.37881        0.30494        0.04327
C         -4.52006        1.16276        0.13551
N         -5.65492        1.29638        0.11236
C         -2.97277       -1.08115        0.08822
N         -4.04222       -1.93054        0.00352
C         -1.74204       -1.82946        0.17700
C         -1.11848       -0.54014        0.09807
C          0.26774       -0.34343        0.08661
C          1.15551       -1.47630        0.16475
N          2.23550       -1.70584        0.13630
C          3.04980       -0.96344        0.06959
N          4.07900       -1.85562       -0.06656
H          2.33215        2.40612       -0.06624
H          0.13065        3.05643       -0.11985
H         -4.97705       -1.54241        0.08367
H         -3.91238       -2.91413        0.21290
H         -1.49613       -2.69220       -0.43473
H          0.93871       -2.52830        0.01701
H          3.91501       -2.84499        0.08187
H          5.03701       -1.52255       -0.05194
