32
Coordinates from ORCA-job ./opt_b97-3c_parallel
N         -3.41056       -2.06855       -1.28934
C         -2.78760       -1.25086       -0.78773
C         -1.99887       -0.18567       -0.18688
C         -2.70934        1.04393       -0.06871
N         -4.07301        1.06700       -0.23921
C         -2.18676        2.30407        0.23336
C         -0.80817        2.66737        0.29755
N         -0.37476        3.89904        0.69592
N         -0.02348        1.92944        0.15785
C          0.32907        0.64529        0.04281
C         -0.60031       -0.42196        0.03022
C         -0.06095       -1.74337        0.18997
C         -0.86280       -2.86632        0.64341
N         -1.47855       -3.75074        1.02636
C          1.32724       -1.98110        0.11891
N          1.87233       -3.23582        0.24417
C          2.17016       -0.89624       -0.05831
C          3.59442       -0.85309       -0.13065
N          3.28313        0.23485       -0.14422
C          2.79969        1.25683       -0.13975
N          3.09697        2.58406       -0.24363
C          1.69217        0.36027       -0.05308
H         -4.54126        1.96157       -0.33173
H         -4.53003        0.24676       -0.62462
H         -2.83934        3.17208        0.31175
H         -1.04490        4.57787        1.04009
H          0.60052        4.03118        0.93690
H          2.87118       -3.32276        0.39284
H          1.27543       -3.99641        0.55306
H          4.28418       -1.65341       -0.37126
H          2.33902        3.24339       -0.38397
H          4.02879        2.86570       -0.52337
