29
Coordinates from ORCA-job ./opt_b97-3c_parallel
N          5.74775        0.43448        0.01386
C          4.70541       -0.03462        0.01912
C          3.29122        0.15401       -0.01151
C          2.52952       -1.06352        0.02184
C          1.12029       -1.33908        0.04359
C          0.01105       -2.23400        0.04349
N          0.24782       -3.57803        0.05771
C         -1.28407       -1.73662        0.03367
C         -1.56434       -0.35299        0.01802
C         -2.92944        0.06366        0.01071
C         -3.98867       -0.92361        0.01188
N         -4.83470       -1.69250        0.00905
C         -3.44306        1.37519       -0.00181
C         -2.75254        2.58674       -0.00882
C         -1.33324        2.75809       -0.00831
N         -0.70119        1.86851       -0.00354
C         -0.47183        0.54917        0.00638
C          0.85966        0.06896        0.00779
C          2.02998        0.83598       -0.02574
N          2.12230        2.19959       -0.09372
H          2.87213       -2.09606        0.04362
H          1.19013       -3.91008       -0.11609
H         -0.52333       -4.21305       -0.11775
H         -2.07660       -2.47923        0.04000
H         -4.52746        1.47917       -0.00614
H         -3.30029        3.52608       -0.01733
H         -0.76460        3.68017       -0.00501
H          3.02523        2.64072        0.04357
H          1.28320        2.75239        0.04325
