26
Coordinates from ORCA-job ./opt_b97-3c_parallel
N          4.37461        0.56062       -0.15190
C          3.49006       -0.09893       -0.19971
C          2.97012       -1.36117       -0.26342
C          1.65334       -1.39196       -0.20250
N          0.80519       -2.13186       -0.19329
C         -0.31277       -2.15702       -0.05805
C         -0.97215       -0.86401        0.11673
C         -2.40812       -0.83939        0.29553
N         -3.24312       -1.50187        0.57646
N         -3.26525        0.15328        0.00395
C         -2.80644        1.34259       -0.41199
N         -1.66391        1.92655       -0.59623
C         -0.68540        1.61521        0.19263
N         -0.21707        2.59198        0.40717
C         -0.15284        0.27887        0.08826
C          1.22448       -0.10019       -0.10958
N          2.35548        0.69325       -0.06623
H          5.33090        0.21449       -0.22928
H          4.44905        1.57139       -0.03695
H          3.58311       -2.25744       -0.33572
H         -0.92180       -3.00516       -0.40874
H         -4.25966       -1.47624        0.50409
H         -3.01412       -2.29951        1.16546
H         -3.76449        1.87003       -0.53765
H          0.59207        2.91950        0.92992
H         -0.85614        3.38478        0.34914
