25
Coordinates from ORCA-job ./opt_b97-3c_parallel
N          3.57166        1.26042        0.01589
C          2.60355        0.72616       -0.02138
N          1.83854        1.85453        0.00464
C          0.51155        1.64411       -0.01556
C         -0.20156        0.37692       -0.00966
C          0.30590       -0.93108       -0.01519
C         -0.65031       -2.02432        0.03033
C         -2.02325       -1.79521        0.04273
C         -2.54168       -0.45821        0.00204
C         -3.83577       -0.03021       -0.01623
C         -3.56214        1.32003       -0.04629
N         -2.24280        1.75182       -0.04009
C         -1.57330        0.56629       -0.00845
C          1.67414       -1.42137       -0.07290
N          2.29617       -2.33897       -0.11171
N          2.80942       -0.62791       -0.06308
H          4.45322        0.91818        0.39922
H          3.73389        2.25251       -0.16925
H          0.25441        2.71537       -0.01166
H         -0.32252       -3.05914        0.08728
H         -2.71830       -2.63103        0.09917
H         -4.57071       -0.43342        0.67716
H         -4.47003        1.94192       -0.07843
H          1.54389       -2.99064       -0.33886
H          3.14453       -2.91042       -0.11622
