27
Coordinates from ORCA-job ./opt_b97-3c_parallel
N          4.06941        0.09297        0.12682
C          2.73633       -0.17896        0.02166
N          2.02736       -1.06329       -0.02209
C          1.17153       -1.80622       -0.05877
N          1.17473       -3.16532       -0.17598
C          0.50468       -0.54587       -0.01063
C          1.44335        0.42151        0.01061
C          1.06843        1.76070        0.02506
N          1.98289        2.77342        0.02526
N         -0.23892        2.11007        0.02522
C         -1.19932        1.14261        0.01778
C         -2.52163        1.59925        0.01629
C         -3.68957        0.76025       -0.01051
N         -3.94350       -0.31244        0.02464
C         -3.21023       -1.13484        0.06221
C         -1.78219       -1.29185        0.01334
C         -0.86003       -0.23721        0.00416
H          4.71566       -0.66539        0.31260
H          4.36239        1.03089        0.37714
H          0.31443       -3.64365       -0.41797
H          2.04855       -3.64495       -0.36049
H          2.94357        2.54904       -0.20731
H          1.65430        3.71218       -0.17128
H         -2.74262        2.66414        0.02524
H         -4.71951        1.05075       -0.18303
H         -3.96051       -1.88448        0.28702
H         -1.46863       -2.33203        0.01656
