29
Coordinates from ORCA-job ./opt_b97-3c_parallel
N         -5.54913       -0.28233        0.38818
C         -4.42594       -0.41152        0.21970
C         -3.00473       -0.57314        0.02376
C         -2.56562       -1.87421       -0.12461
C         -1.27781       -2.31160       -0.35380
C         -0.08084       -1.60048       -0.39727
N          0.95046       -2.43687       -0.72817
C          0.15024       -0.21198       -0.20711
C         -0.85494        0.80051       -0.12114
C         -2.24668        0.59151       -0.02328
C         -0.45171        2.16897       -0.10649
N         -1.32964        3.22333       -0.12115
C          0.88656        2.54089       -0.07539
C          1.85323        1.56282       -0.03982
N          3.17883        1.77735        0.06834
C          3.60167        0.74068        0.11390
C          2.74214       -0.41858        0.02153
C          3.71223       -1.44930        0.24432
N          4.09662       -2.40520        0.73904
C          1.48997        0.24966       -0.11152
H         -3.32296       -2.65621       -0.09288
H         -1.20834       -3.38855       -0.50537
H          0.72790       -3.37734       -1.03559
H          1.81451       -2.03093       -1.06772
H         -2.87393        1.47093        0.08230
H         -0.96282        4.15438       -0.28607
H         -2.29651        3.04916       -0.37057
H          1.17540        3.59011       -0.04315
H          4.67310        0.83129        0.26534
