24
Coordinates from ORCA-job ./opt_b97-3c_parallel
N         -4.07837       -1.28983       -0.03640
C         -2.90614       -0.59432       -0.01831
C         -2.89863        0.85000       -0.01548
C         -1.51156        1.08558       -0.00778
C         -0.78105        2.26218       -0.00739
C          0.60757        2.14403       -0.00445
C          1.22052        0.88124       -0.00166
C          2.66015        0.84713        0.00010
N          3.50527        0.13858       -0.00767
C          3.40289       -0.95995       -0.00191
C          2.33996       -1.92827        0.00282
C          0.98240       -1.60187        0.00187
C          0.44412       -0.30199       -0.00146
C         -0.95064       -0.15612       -0.00567
N         -1.90682       -1.11542       -0.01086
H         -4.95235       -0.80317       -0.19892
H         -4.05812       -2.29459       -0.17018
H         -3.74060        1.53445       -0.02337
H         -1.26825        3.23404       -0.01035
H          1.21817        3.04412       -0.00498
H          3.35548        1.67909       -0.00880
H          4.47244       -1.13772       -0.01223
H          2.64954       -2.97038        0.00584
H          0.29376       -2.44318        0.00402
