27
Coordinates from ORCA-job ./opt_b97-3c_parallel
N          5.74086       -0.78362       -0.16867
C          4.65453       -0.43408       -0.11128
C          3.29103        0.02024       -0.04981
C          2.88636        1.34679        0.03585
C          1.50145        1.33776        0.05462
C          0.61500        2.39393        0.12790
C         -0.74941        2.10170        0.11183
C         -1.24861        0.77407        0.02530
C         -2.65643        0.56764       -0.02635
C         -3.55313        1.70303        0.01886
N         -4.27383        2.58959        0.05188
C         -3.35099       -0.64979       -0.15636
C         -2.84015       -1.94468       -0.21451
C         -1.46202       -2.29942       -0.08536
N         -1.04400       -3.57154        0.17088
N         -0.64635       -1.57601       -0.07087
C         -0.30453       -0.28201       -0.02448
C          1.05341        0.04000       -0.01634
C          2.16315       -0.79415       -0.07906
H          3.53145        2.22159        0.07398
H          0.96735        3.42101        0.18797
H         -1.41380        2.95881        0.16253
H         -4.43628       -0.59224       -0.22577
H         -3.52129       -2.78467       -0.33038
H         -1.72552       -4.29869        0.35628
H         -0.08114       -3.73937        0.43865
H          2.15387       -1.87943       -0.14759
