28
Coordinates from ORCA-job ./opt_b97-3c_parallel
N          4.94561        2.00511       -0.14399
C          4.07568        1.26743       -0.06457
C          2.97826        0.31726        0.02311
C          3.44711       -0.97895        0.17902
C          2.73240       -2.15222        0.23866
C          1.37074       -2.33973        0.12261
C          0.31966       -1.41596       -0.00318
C         -0.97265       -2.00987       -0.11636
N         -1.19447       -3.35400       -0.25040
N         -2.13021       -1.33216       -0.13589
C         -2.00044       -0.01186       -0.04260
C         -3.06155        0.91858        0.00130
C         -4.48939        0.93658       -0.01718
N         -5.61147        0.78285        0.13692
C         -2.27950        2.12548        0.10470
N         -1.16330        1.99807        0.11418
C         -0.83320        0.68562        0.01887
C          0.42606        0.01251        0.00184
C          1.63960        0.77364       -0.03026
N          1.54955        2.14207       -0.17148
H          4.52692       -1.11037        0.24998
H          3.32450       -3.05637        0.36262
H          1.12680       -3.39551        0.17503
H         -0.42006       -3.94070       -0.53837
H         -2.12710       -3.65163       -0.51527
H         -2.60973        3.15455        0.17778
H          2.38684        2.70381       -0.05954
H          0.65421        2.59915       -0.05690
