28
Coordinates from ORCA-job ./opt_b97-3c_parallel
N         -3.57712       -1.55733        1.19412
C         -2.80635       -0.82972        0.76415
C         -1.84029        0.12090        0.24889
C         -2.41091        1.39462        0.21931
C         -1.84565        2.61964       -0.07086
C         -0.50470        2.91934       -0.20857
N         -0.20507        4.23164       -0.44993
C          0.56641        2.04824       -0.06105
C          0.60631        0.64775        0.03762
C         -0.49153       -0.26602       -0.00518
C         -0.18053       -1.64532       -0.25320
C         -1.12088       -2.63268       -0.74132
N         -1.84508       -3.41848       -1.14825
C          1.12677       -2.12994       -0.22081
C          2.14449       -1.24412        0.03449
C          3.49922       -1.49879        0.15784
C          4.11667       -0.27698        0.37246
C          3.14056        0.71249        0.35701
C          1.90203        0.10321        0.13974
H         -3.48039        1.45528        0.42132
H         -2.54243        3.45425       -0.12770
H          0.73232        4.46217       -0.76103
H         -0.95683        4.85051       -0.73329
H          1.52192        2.55710       -0.11567
H          1.34829       -3.18011       -0.40405
H          3.98534       -2.46990        0.10358
H          5.18096       -0.12026        0.53011
H          3.33788        1.76814        0.52108
