29
Coordinates from ORCA-job ./opt_b97-3c_parallel
N          3.97028       -2.14482        0.86402
C          3.08401       -1.47526        0.59387
C          1.95122       -0.64151        0.24819
C          2.33092        0.65454       -0.26495
N          3.27915        0.85347       -1.23257
N          1.90452        1.66785       -0.14821
C          0.85955        1.86864        0.14942
N          1.01547        2.99766        0.90632
C         -0.39682        1.17312        0.00344
C         -1.53732        1.95636       -0.22584
N         -2.78810        1.46013       -0.32606
C         -2.90229        0.12639       -0.20492
C         -4.18744       -0.52374       -0.32940
C         -3.71955       -1.89117       -0.22593
C         -2.35287       -1.99678       -0.03166
C         -1.82914       -0.72135        0.00075
C         -0.50828       -0.23414        0.12639
C          0.61375       -1.06984        0.37994
N          0.42577       -2.35836        0.81075
H          3.56145        1.80038       -1.45974
H          3.92498        0.10386       -1.45466
H          0.20064        3.48366        1.26322
H          1.89938        3.49437        0.88882
H         -1.46243        3.03803       -0.32016
H         -5.02403       -0.17147       -0.92412
H         -4.33002       -2.78726       -0.30423
H         -1.82280       -2.94087        0.03172
H         -0.48469       -2.61218        1.17664
H          1.23001       -2.87044        1.15834
