29
Coordinates from ORCA-job ./opt_b97-3c_parallel
N         -4.79150        1.51310        0.08381
C         -3.85415        0.85860        0.06149
C         -2.61870        0.14050        0.04528
C         -2.27510       -1.26274        0.01990
N         -3.24554       -2.22269        0.00279
N         -1.19502       -1.57741        0.00356
C         -0.47200       -0.43298        0.00214
C         -1.29987        0.64604        0.02988
C         -0.84686        1.95062        0.05471
C          0.52896        2.16442        0.02480
N          0.94348        3.46831        0.08984
C          1.43671        1.07660       -0.04253
C          2.81494        1.37494       -0.14859
C          3.87445        0.46745       -0.18676
C          3.73768       -0.95316       -0.03954
N          2.89087       -1.65568        0.03606
C          1.82288       -1.39173       -0.04323
N          1.46924       -2.71487       -0.08290
C          0.92360       -0.25033       -0.02725
H         -4.22263       -1.96201        0.08673
H         -2.99583       -3.20256        0.07653
H         -1.54833        2.78147        0.09910
H          0.25493        4.17627        0.32141
H          1.90345        3.64900        0.36150
H          3.12262        2.41284       -0.23013
H          4.89530        0.82393       -0.29982
H          4.48844       -1.67234        0.26713
H          0.48910       -2.96652       -0.00919
H          2.15826       -3.43175        0.11481
