27
Coordinates from ORCA-job ./opt_b97-3c_parallel
N         -4.27990       -2.83183       -0.36761
C         -3.59971       -1.92102       -0.25437
C         -2.70985       -0.81375       -0.10965
C         -3.45046        0.34056        0.08829
N         -3.22461        1.63220        0.39869
C         -1.93292        2.10480        0.42978
C         -0.81466        1.44950       -0.16665
C          0.16782        2.50738       -0.27532
N          0.49727        3.55320       -0.40780
N          1.49834        2.29524       -0.25231
C          1.95870        1.03549       -0.12522
N          3.27571        0.62060       -0.10160
C          3.25980       -0.76879        0.01557
N          4.28368       -1.19203        0.04676
C          1.89934       -1.24867        0.06313
C          1.52639       -2.61949        0.19600
N          1.27202       -3.72744        0.30028
C          1.08314       -0.07666       -0.03077
C         -0.35398        0.09775       -0.03866
C         -1.27787       -1.00518       -0.08193
H         -4.53269        0.54139        0.13706
H         -2.55882        2.97421        0.68627
H         -0.44838        3.79267       -0.70557
H          0.96829        4.43943       -0.22588
H          5.25637       -0.88356        0.10280
H          4.32926       -2.21358        0.03858
H         -0.92183       -2.02355       -0.14411
