25
Coordinates from ORCA-job ./opt_b97-3c_parallel
N         -5.15625       -0.24934        0.00122
C         -4.03199       -0.04228        0.00070
C         -2.61576        0.23819       -0.00011
C         -2.21770        1.57581        0.00185
C         -0.91303        2.08267        0.00211
C          0.31307        1.39567        0.00090
C          1.46402        2.20757        0.00136
C          2.74590        1.65891        0.00018
C          2.85528        0.27562       -0.00104
C          4.02901       -0.53045       -0.00205
N          3.17002       -1.26914       -0.00246
C          2.20869       -1.87218       -0.00274
C          1.76209       -0.51891       -0.00133
C          0.45769       -0.00995       -0.00056
N         -0.58624       -0.85632       -0.00176
C         -1.68242       -0.85682       -0.00272
N         -2.04549       -2.17510       -0.02850
H         -3.01094        2.32054        0.00324
H         -0.85760        3.16911        0.00340
H          1.36803        3.29081        0.00232
H          3.62884        2.29330        0.00018
H          5.06601       -0.21587        0.00081
H          1.62179       -2.78185        0.00134
H         -1.34633       -2.90721        0.00963
H         -3.02656       -2.43292        0.00135
