27
Coordinates from ORCA-job ./opt_b97-3c_parallel
N          3.82379       -2.53872        0.43716
C          3.60218       -1.42205        0.34029
C          2.55197       -0.45461        0.25058
C          3.37946        0.54873       -0.23259
N          3.03786        1.88341       -0.42750
C          1.82980        2.31198        0.06861
N          0.83670        1.86977        0.76502
C          0.31581        0.71445        0.45967
C          1.10129       -0.42441        0.18599
N          0.54145       -1.63476       -0.10116
C         -0.79935       -1.80420       -0.04532
N         -1.29067       -3.01488       -0.43768
C         -1.61757       -0.77632        0.40139
C         -2.96497       -0.44798        0.08881
N         -3.99110       -0.83437       -0.02583
N         -3.13333        0.86674       -0.07382
C         -1.99161        1.56598        0.09508
N         -2.24289        2.61460       -0.14347
C         -1.11775        0.55459        0.45262
H          4.32152        1.03110       -0.53740
H          2.41537        3.12146       -0.39583
H         -0.62857       -3.76928       -0.59388
H         -2.23917       -3.27305       -0.19008
H         -3.78215       -1.81246        0.17173
H         -5.00755       -0.75504       -0.03842
H         -1.36733        3.12886       -0.03123
H         -2.97956        3.31599       -0.21085
