25
Coordinates from ORCA-job ./opt_b97-3c_parallel
N          4.06898        2.52896       -0.11446
C          3.25109        1.73217       -0.08120
C          2.21000        0.73851       -0.02275
C          2.64221       -0.60506        0.25968
N          2.17790       -1.60883        0.23972
C          1.11293       -1.84644        0.07222
N          1.28402       -3.02045       -0.60865
C         -0.15088       -1.15120        0.12765
C         -1.31872       -1.91025        0.31470
C         -2.57871       -1.30881        0.32125
C         -2.66121        0.06357        0.12442
N         -3.77160        0.83041        0.08845
C         -3.42197        1.88938       -0.08310
C         -1.99848        2.10968       -0.19490
C         -1.52185        0.79033       -0.04616
C         -0.23420        0.24995       -0.02776
C          0.86859        1.11352       -0.14105
H          3.61326       -0.94558        0.60041
H          0.47556       -3.54021       -0.93103
H          2.18377       -3.48781       -0.59909
H         -1.24971       -2.98631        0.45402
H         -3.47666       -1.90372        0.46957
H         -4.23618        2.60133       -0.14479
H         -1.47929        3.04535       -0.37326
H          0.67346        2.17231       -0.29271
