37
Coordinates from ORCA-job ./opt_b97-3c_parallel
N         -5.95490       -0.98457       -1.39155
C         -5.18258       -0.64652       -0.61903
C         -3.78733       -0.34405       -0.54992
C         -3.63478        0.95968        0.03023
C         -2.24778        1.01746        0.39564
C         -1.38070        2.07147        0.83157
N         -2.03931        3.11228        1.43235
C         -0.02412        2.09669        0.49357
C          0.73363        3.26395        0.90876
N          1.32621        4.17879        1.25369
C          0.60703        0.91705        0.01803
C          1.86996        0.95831       -0.61321
C          2.15166        2.15114       -1.40323
N          2.37359        3.07609       -2.03762
C          2.81581       -0.08570       -0.70460
N          3.93397        0.15789       -1.48363
C          2.81308       -1.29035        0.03252
C          4.05865       -2.05396        0.02584
N          5.02900       -2.65871        0.00875
C          1.73421       -1.86394        0.73929
N          2.00735       -3.01300        1.46170
C          0.38020       -1.47746        0.65956
C         -0.59378       -2.39646        1.23573
N         -1.35070       -3.11517        1.70245
C         -0.13693       -0.26351        0.16684
C         -1.58176       -0.17776       -0.02707
C         -2.52272       -0.99770       -0.74230
N         -2.46321       -2.14328       -1.48324
H         -4.08408        1.88568       -0.32177
H         -3.05345        3.12084        1.42800
H         -1.55254        3.99467        1.55420
H          4.73496       -0.46041       -1.40427
H          4.09053        1.09465       -1.84191
H          2.91297       -3.45871        1.35357
H          1.23489       -3.58222        1.79267
H         -1.64116       -2.73032       -1.39423
H         -3.33829       -2.60046       -1.71888
