32
Coordinates from ORCA-job ./opt_b97-3c_parallel
N         -4.93572       -2.28660       -0.03445
C         -4.15002       -1.45533       -0.01763
C         -3.15282       -0.38414       -0.00599
C         -3.70838        0.90932       -0.00945
N         -5.07550        1.07167       -0.02352
C         -3.03295        2.11361        0.00445
C         -1.67693        2.35502        0.01165
C         -0.59094        1.47936        0.00644
C          0.62255        2.19586        0.00490
C          1.85680        1.57260        0.00313
C          3.06731        2.35423       -0.00136
N          4.01847        2.98751       -0.00566
C          1.85279        0.19385        0.00248
C          2.94818       -0.71069       -0.00264
C          4.37470       -0.61270        0.00838
N          5.51178       -0.61058       -0.10651
C          2.20713       -1.95124       -0.01602
N          2.82892       -3.16826       -0.02680
N          1.09290       -1.84610       -0.01525
C          0.70314       -0.54723       -0.00086
C         -0.60059        0.05244        0.00440
C         -1.77888       -0.76544        0.00821
N         -1.60244       -2.13304        0.03228
H         -5.68363        0.25864       -0.02796
H         -5.48411        1.99958       -0.01871
H         -3.64652        3.01361        0.00725
H         -1.45326        3.42027        0.01902
H          0.62117        3.28494        0.00434
H          2.28666       -4.01399       -0.16440
H          3.83520       -3.22005       -0.14687
H         -2.40627       -2.75130        0.03020
H         -0.67482       -2.53663        0.03603
