31
Coordinates from ORCA-job ./opt_b97-3c_parallel
N          5.50954        0.09492       -0.02963
C          4.37425       -0.03645       -0.06060
C          2.93784       -0.18923       -0.11736
C          2.58451       -1.46539       -0.68439
N          1.76382       -2.15991       -0.42438
C          0.81356       -1.84672        0.04098
N          0.64794       -2.83026        0.97740
C          0.02290       -0.63757        0.00869
C          0.59862        0.65994        0.12555
C         -0.29729        1.77652        0.13352
N          0.10596        3.08512        0.13168
C         -1.68276        1.60763        0.04413
C         -2.19220        0.32865       -0.07521
C         -3.50453       -0.10110       -0.19745
C         -4.68311        0.72545       -0.22208
N         -5.61088        1.39241       -0.24252
C         -3.47904       -1.48639       -0.29978
C         -2.15224       -1.90059       -0.24108
C         -1.36266       -0.76397       -0.10068
C          2.01585        0.81849        0.22962
N          2.56629        1.98461        0.70190
H          3.20756       -2.15767       -1.23916
H         -0.20499       -2.85662        1.52476
H          1.18317       -3.68775        0.89647
H          1.07242        3.28023       -0.10807
H         -0.58056        3.79611       -0.09489
H         -2.35233        2.46568        0.04072
H         -4.34516       -2.13452       -0.41004
H         -1.80526       -2.92914       -0.30095
H          3.54819        1.98122        0.95692
H          1.95687        2.62616        1.19855
