30
Coordinates from ORCA-job ./opt_b97-3c_parallel
N         -4.85408        1.80335        0.28488
C         -3.98526        1.17312       -0.10924
C         -2.70056        0.54111       -0.08478
C         -2.66922       -0.89418       -0.17204
N         -3.60219       -1.88976       -0.26315
C         -1.26218       -1.18306       -0.19539
C         -0.54737       -2.42977       -0.15151
C          0.82322       -2.48560        0.03502
C          1.58877       -1.32702        0.07650
N          2.91266       -1.46880        0.22052
C          3.86483       -0.93714        0.30182
C          4.06144        0.44796        0.00297
C          3.04996        1.38035       -0.23113
N          3.44977        2.66595       -0.46800
C          1.66812        1.13406       -0.23491
C          0.96633       -0.07656       -0.06993
C         -0.48826        0.02829       -0.08604
C         -1.40059        1.12258        0.11859
N         -1.27453        2.38592        0.62664
H         -3.30206       -2.81729       -0.54272
H         -4.57068       -1.63282       -0.42006
H         -1.11903       -3.35272       -0.21139
H          1.30727       -3.45629        0.11531
H          4.52847       -1.61619        0.82315
H          5.10850        0.74287       -0.00373
H          2.77217        3.32610       -0.83349
H          4.43177        2.84456       -0.64729
H          1.05938        2.01427       -0.41835
H         -0.38650        2.65787        1.03396
H         -2.11110        2.86771        0.93978
