29
Coordinates from ORCA-job ./opt_b97-3c_parallel
N          5.61882       -1.69806       -0.82018
C          4.70011       -1.06176       -0.58100
C          3.53470       -0.27161       -0.28661
C          3.52553        1.08389       -0.01366
C          2.19770        1.44431        0.13478
C          1.69349        2.71139        0.31668
C          0.31496        2.84986        0.27878
C         -0.55491        1.74867        0.13471
C         -1.88251        2.15064       -0.00221
C         -3.01245        1.40583       -0.27576
C         -3.17352        0.02967       -0.30275
C         -4.53209       -0.37428       -0.61554
N         -5.60545       -0.69126       -0.84980
C         -2.21849       -0.94272        0.04237
N         -2.71184       -2.23144        0.14519
C         -0.82866       -0.75806        0.26532
C         -0.16277       -1.91450        0.84853
N          0.33509       -2.82732        1.32447
C         -0.04509        0.42170        0.11729
C          1.37301        0.33797        0.01621
C          2.22465       -0.72940       -0.29426
H          4.38831        1.74497        0.02232
H          2.34651        3.57617        0.40875
H         -0.08063        3.86149        0.34377
H         -2.07548        3.22159        0.01513
H         -3.90325        2.00273       -0.46935
H         -2.12514       -2.94950        0.55789
H         -3.71689       -2.36990        0.16675
H          1.94434       -1.74316       -0.56372
