26
Coordinates from ORCA-job ./opt_b97-3c_parallel
N         -2.83929        3.29585        0.01844
C         -2.37219        2.25198        0.00690
C         -1.80387        0.91506       -0.00741
C         -2.79625       -0.06413       -0.03027
C         -2.68773       -1.44219       -0.04158
C         -1.53886       -2.21326       -0.03561
N         -1.73238       -3.56709       -0.04004
C         -0.22041       -1.77228       -0.02780
C          0.31217       -0.47450       -0.01413
C         -0.39638        0.76413        0.00080
N          0.30249        1.94598        0.02313
C          1.64802        1.99244        0.02920
C          2.36902        0.82108        0.01009
C          3.73943        0.63344        0.00789
C          3.95100       -0.73722       -0.01715
C          2.71319       -1.37309       -0.02891
C          1.72077       -0.39116       -0.01145
H         -3.82617        0.29101       -0.03761
H         -3.63490       -1.97877       -0.05592
H         -0.94381       -4.17512        0.15103
H         -2.66390       -3.92561        0.14055
H          0.49442       -2.58742       -0.03167
H          2.11554        2.97475        0.04735
H          4.50177        1.40863        0.02175
H          4.92024       -1.23001       -0.02694
H          2.57729       -2.45055       -0.05034
