27
Coordinates from ORCA-job ./opt_b97-3c_parallel
N          4.10630       -2.38580       -0.04187
C          3.25543       -1.62237       -0.03847
C          2.17071       -0.67038       -0.02253
C          0.86115       -1.16216       -0.02946
C         -0.31857       -0.39593        0.00857
C         -0.36881        1.01437        0.04699
C          0.83322        1.81022        0.00258
N          1.93262        1.70650       -0.03679
C          2.46987        0.74345        0.00591
N          3.73062        1.26714        0.10861
C         -1.61989        1.66034        0.11778
N         -1.72244        3.02094        0.17967
N         -2.80358        1.00424        0.13923
C         -2.74389       -0.33947        0.08641
C         -3.92864       -1.16829        0.10139
C         -3.26660       -2.45977        0.02068
C         -1.88364       -2.37377       -0.01993
C         -1.56043       -1.03993        0.02250
H          0.76143       -2.24350       -0.05242
H          0.97938        2.78347       -0.45322
H          4.53568        0.65212        0.06541
H          3.87950        2.26079       -0.02847
H         -0.89694        3.55695        0.42146
H         -2.62756        3.41903        0.40524
H         -4.89325       -0.90890       -0.32214
H         -3.75306       -3.43168       -0.00791
H         -1.19938       -3.21566       -0.08052
