30
Coordinates from ORCA-job ./opt_b97-3c_parallel
N         -5.41000        1.16100        0.15282
C         -4.36228        0.70566        0.11053
C         -3.01400        0.16604        0.05308
C         -3.07211       -1.22000       -0.09134
N         -3.92733       -1.93014       -0.17829
C         -1.99352       -2.18892       -0.15112
C         -0.64465       -1.95408       -0.09627
C          0.07848       -0.71910       -0.00917
C         -0.44100        0.63452        0.07429
C          0.54710        1.72079        0.12285
C          1.89824        1.43391        0.10168
C          2.69127        2.62732        0.14865
N          3.47462        2.98901       -0.60190
C          2.31625        0.12747        0.04644
N          3.66403       -0.17299        0.04895
C          3.85935       -1.53470       -0.00997
N          4.69526       -2.25146       -0.02556
N          2.56691       -1.55572       -0.03708
C          1.44264       -0.91982       -0.00922
C         -1.84240        1.03540        0.13006
N         -2.08785        2.11417        0.24077
H         -4.80274       -1.41190       -0.24438
H         -4.16423       -2.90558       -0.35190
H         -2.21429       -3.25983       -0.24482
H         -0.01799       -2.84085       -0.14764
H          0.21538        2.75561        0.17110
H          4.78317       -3.26393        0.05412
H          5.64433       -1.88003       -0.04801
H         -1.77187        2.73327        0.98529
H         -3.01068        2.45116       -0.03372
