27
Coordinates from ORCA-job ./opt_b97-3c_parallel
N          4.98314       -0.70625        0.05453
C          3.98220       -0.15906        0.04138
C          2.70986        0.51646        0.02325
C          2.52072        1.89084        0.05625
C          1.15264        2.13783        0.02554
C          0.48738        0.91022       -0.02117
C          1.45667       -0.06812       -0.01393
C          1.12690       -1.40708       -0.05875
C         -0.22289       -1.74883       -0.05253
N         -0.48632       -3.08798       -0.17485
C         -1.25033       -0.76453        0.02014
C         -2.55759       -1.25483        0.20123
C         -3.77811       -0.59553        0.25313
C         -4.05182        0.74387        0.04863
C         -3.14409        1.76428       -0.16431
C         -1.75729        1.70638       -0.15699
C         -0.88846        0.60921       -0.04467
H          3.30476        2.64296        0.10871
H          0.70751        3.12721        0.06134
H          1.90123       -2.16921       -0.10277
H          0.30436       -3.71515       -0.26934
H         -1.32703       -3.34169       -0.68297
H         -2.67922       -2.32095        0.36485
H         -4.64372       -1.22604        0.44364
H         -5.10170        1.02774        0.06458
H         -3.57547        2.75081       -0.31827
H         -1.30898        2.68376       -0.29213
