30
Coordinates from ORCA-job ./opt_b97-3c_parallel
N         -5.23960        1.11220        0.22126
C         -4.09971        1.17992        0.17963
C         -2.67101        1.22949        0.14523
C         -2.24273        2.52428        0.10184
C         -0.92628        2.57264       -0.08927
C         -0.42429        1.17505       -0.17564
C         -1.53405        0.37362       -0.01127
C         -1.47969       -1.02354        0.02608
C         -2.70167       -1.77508        0.20762
N         -3.65819       -2.38452        0.35153
C         -0.23931       -1.68367       -0.10718
N         -0.21516       -3.05865       -0.08128
C          0.96534       -0.96567       -0.27819
C          2.15749       -1.77249       -0.47841
N          3.44920       -1.51144       -0.04339
C          3.77477       -0.18232        0.10956
N          4.79943       -0.21875        0.51362
N          3.19574        0.92653       -0.21652
C          1.97585        1.34478       -0.31483
N          2.39167        2.36723       -0.31616
C          0.82445        0.48135       -0.31506
H         -2.87485        3.40367        0.22036
H         -0.41257        3.52976       -0.13747
H         -1.07418       -3.55989        0.13039
H          0.66150       -3.55803        0.01070
H          2.51229       -2.81293       -0.42272
H          5.40700       -0.96440        0.85104
H          5.17243        0.64967        0.89521
H          2.97773        3.09094       -0.73215
H          1.43619        2.57871       -0.60136
