23
Coordinates from ORCA-job ./opt_b97-3c_parallel
N         -0.96610        2.42287       -0.00011
C         -0.90675        1.31662       -0.00014
N         -2.27800        1.51457        0.00011
C         -3.17497        0.51801        0.00037
C         -3.15402       -0.85176        0.00045
C         -1.97416       -1.65905       -0.00001
C         -0.67197       -1.20123       -0.00009
C          0.27078       -2.30629       -0.00036
C          1.63977       -2.09336       -0.00084
C          2.10393       -0.74405        0.00030
N          3.35824       -0.33104       -0.00104
C          3.15675        1.04002       -0.00097
N          1.91661        1.45770       -0.00028
C          1.22525        0.36087       -0.00048
C         -0.14024        0.08862       -0.00023
H          0.05520        2.41248       -0.00025
H         -1.23424        3.40623       -0.00101
H         -4.22572        0.84745        0.00072
H         -4.09342       -1.39771        0.00085
H         -2.17750       -2.72712        0.00032
H         -0.07277       -3.33953       -0.00018
H          2.32328       -2.93986       -0.00050
H          4.10975        1.59211       -0.00189
