32
Coordinates from ORCA-job ./opt_b97-3c_parallel
N          5.53426       -1.74300       -0.36379
C          4.55568       -1.16281       -0.24617
C          3.30183       -0.42993       -0.08115
C          3.45358        0.93202        0.22290
N          4.71154        1.46371        0.38934
C          2.44948        1.86944        0.37160
C          1.07990        1.73397        0.26300
C          0.27038        0.61421        0.04675
C          0.74024       -0.72680       -0.05401
C         -0.24005       -1.75410       -0.00576
C         -1.60638       -1.52481        0.06650
C         -2.49036       -2.66357        0.13499
N         -3.17297       -3.57840        0.19321
C         -2.04530       -0.21080        0.02977
C         -3.34520        0.29378        0.00460
C         -4.59929       -0.41683        0.01526
N         -5.60276       -0.96321        0.02417
C         -3.25337        1.66536       -0.09458
C         -1.91281        2.01284       -0.11294
C         -1.52962        3.38010       -0.36612
N         -1.24341        4.46785       -0.56963
C         -1.13561        0.83900       -0.00561
C          2.09235       -1.16326       -0.19997
N          2.27056       -2.49158       -0.53915
H          5.49911        0.82952        0.47809
H          4.80109        2.39025        0.79125
H          2.77481        2.88483        0.59554
H          0.60338        2.67478        0.46885
H          0.03361       -2.80548        0.01432
H         -4.09178        2.35287       -0.18477
H          1.48193       -3.00339       -0.91736
H          3.19677       -2.79543       -0.82214
