27
Coordinates from ORCA-job ./opt_b97-3c_parallel
N          1.56547        3.79174       -0.01166
C          1.33053        2.67286        0.00469
C          1.04999        1.24991        0.01104
C          2.12082        0.34135        0.00712
N          3.43092        0.74842        0.01756
C          1.81616       -1.01558       -0.00272
C          2.70469       -2.13221       -0.01699
N          1.67171       -2.59077       -0.02697
C          0.58282       -2.89081       -0.03807
C          0.53923       -1.46230       -0.00893
C         -0.56417       -0.59601        0.00070
C         -1.85243       -1.17060       -0.00925
C         -3.10991       -0.54607       -0.00538
N         -4.20575       -1.36284       -0.02772
C         -3.36035        0.82704        0.01859
C         -2.37085        1.85997        0.04414
N         -1.29293        1.68129        0.03211
C         -0.28925        0.78871        0.01456
H          3.64611        1.73196       -0.10862
H          4.16761        0.06505       -0.11855
H          3.78785       -2.14002       -0.00687
H         -0.14129       -3.61126        0.32413
H         -1.89470       -2.25628       -0.02504
H         -4.07679       -2.34684       -0.23557
H         -5.11495       -0.95262       -0.21049
H         -4.37755        1.21255        0.02113
H         -2.50767        2.92635        0.17735
