31
Coordinates from ORCA-job ./opt_b97-3c_parallel
N         -5.56271        0.43773        0.20028
C         -4.41991        0.43455        0.16864
C         -2.97668        0.44930        0.11891
C         -2.33751        1.68947        0.12956
C         -0.96442        1.96648        0.08844
C          0.15869        1.09801        0.04327
C          1.45165        1.68402        0.01082
C          1.65800        3.11775        0.00157
N          1.82812        4.24960       -0.01785
C          2.59446        0.88170       -0.02413
N          3.87771        1.35866       -0.05834
C          2.50003       -0.53916       -0.02439
C          3.18926       -1.80075        0.04171
C          2.57095       -3.09284       -0.07999
C          1.25881       -2.52264       -0.00518
N          0.20308       -3.38885        0.05481
C          1.19635       -1.12735        0.00345
C          0.03910       -0.31502        0.03272
N         -1.17682       -0.88493        0.03429
C         -2.26699       -0.79689        0.04037
N         -2.85496       -2.01058       -0.18070
H         -2.98483        2.56369        0.17429
H         -0.78538        3.03620        0.10271
H          4.63247        0.71501       -0.26862
H          4.02664        2.34722       -0.23237
H          4.26379       -1.64870        0.11833
H          2.89892       -4.01009        0.39793
H          0.38854       -4.36393        0.26190
H         -0.70470       -3.01317        0.30846
H         -3.85300       -2.05386       -0.35998
H         -2.28718       -2.79974       -0.46619
