26
Coordinates from ORCA-job ./opt_b97-3c_parallel
N         -1.74511       -3.44506        0.07528
C         -1.73172       -2.30424        0.00944
C         -1.77985       -0.87447        0.01917
C         -2.99392       -0.08443        0.02762
N         -4.24171       -0.64110        0.02726
N         -2.96091        1.03701        0.03241
C         -1.64847        1.34744        0.02660
N         -1.09266        2.57742        0.02763
C          0.25884        2.65381        0.02022
C          1.10975        1.53806        0.01221
C          2.49075        1.78687        0.00349
C          3.49900        0.82148       -0.00437
C          3.25547       -0.59671       -0.00074
N          4.27033       -1.50903        0.02841
N          2.36767       -1.25250       -0.00434
C          1.30521       -0.95104        0.00498
C          0.52120        0.25887        0.01242
C         -0.87503        0.21587        0.01903
H         -5.05715       -0.04870        0.14145
H         -4.35366       -1.64297        0.14081
H          0.65965        3.66606        0.02068
H          2.81804        2.82408        0.00219
H          4.54055        1.13442       -0.01194
H          5.23621       -1.20382       -0.01948
H          4.07055       -2.50147       -0.02411
H          0.98562       -1.98555       -0.02607
