34
Coordinates from ORCA-job ./opt_b97-3c_parallel
N          5.37259        1.07343        0.96266
C          4.55035        0.46109        0.45554
C          3.15193        0.23278        0.26164
C          3.01891       -1.10086       -0.25315
C          1.61778       -1.30565       -0.48980
C          0.85257       -2.51461       -0.56017
N          1.50321       -3.69108       -0.80413
C         -0.49071       -2.52984       -0.22978
C         -1.22508       -1.35427       -0.05034
C         -2.57102       -1.59278        0.23721
C         -3.60072       -0.69724        0.48094
N         -4.79430       -1.23830        0.87264
C         -3.57335        0.67896        0.32725
C         -2.55324        1.48559       -0.16517
N         -2.94409        2.79638       -0.31396
C         -1.22131        1.12714       -0.46562
C         -0.43576        2.16565       -1.11748
N          0.16265        2.98369       -1.64724
C         -0.57796       -0.11618       -0.24287
C          0.89087       -0.09680       -0.21510
C          1.84676        0.82969        0.33851
N          1.92756        2.03005        0.98668
H          3.63645       -1.98646       -0.12091
H          2.51708       -3.69857       -0.80907
H          1.01824       -4.56478       -0.63151
H         -0.98669       -3.49738       -0.17249
H         -2.85851       -2.63798        0.34516
H         -5.51993       -0.62325        1.22442
H         -4.82720       -2.21717        1.13600
H         -4.51028        1.18683        0.55658
H         -3.90697        3.06368       -0.14247
H         -2.30358        3.47397       -0.71497
H          1.13933        2.66308        0.90637
H          2.84638        2.44701        1.09627
