29
Coordinates from ORCA-job ./opt_b97-3c_parallel
N         -2.83694        2.17255       -0.09332
C         -2.54199        0.85177        0.07211
C         -3.54216       -0.16902        0.14289
C         -3.27626       -1.53657        0.12723
C         -2.02413       -2.16072        0.06124
C         -0.73593       -1.59177        0.00617
C          0.31373       -2.51838       -0.04129
C          1.64116       -2.12013       -0.09613
C          1.95992       -0.72617       -0.10740
C          2.96099        0.30850       -0.10132
N          4.20925       -0.24482       -0.06577
C          2.76399        1.73357       -0.11750
C          1.34541        1.54923       -0.04651
N          0.57408        2.67636        0.03038
C          0.88892        0.22880       -0.04781
C         -0.45541       -0.20668        0.00184
N         -1.46316        0.67995        0.03798
H         -3.79447        2.45130       -0.27400
H         -2.09936        2.81504       -0.35913
H         -4.57188        0.17589        0.20214
H         -4.14088       -2.19402        0.17255
H         -2.07312       -3.24710        0.05901
H          0.10170       -3.58516       -0.03466
H          2.43409       -2.86271       -0.12956
H          4.30508       -1.24116       -0.22831
H          5.01250        0.34883       -0.24098
H          3.33092        2.46372        0.45112
H         -0.40118        2.56396        0.28811
H          1.02400        3.55999        0.23977
