28
Coordinates from ORCA-job ./opt_b97-3c_parallel
N         -4.77696        2.32236        0.00162
C         -4.01934        1.46625       -0.00660
C         -3.06304        0.37062       -0.00509
C         -3.70640       -0.86215        0.00195
C         -3.16197       -2.12782        0.00430
C         -1.82978       -2.48472        0.00391
C         -0.68344       -1.68843        0.00168
C          0.48382       -2.47828        0.00489
N          1.74070       -2.00641        0.00378
C          1.81814       -0.67288       -0.00173
C          3.01107        0.08748       -0.00450
C          4.36813       -0.36419       -0.00054
N          5.51010       -0.39001       -0.04678
C          2.41004        1.40052       -0.01262
N          3.17373        2.53215       -0.01849
N          1.28913        1.45713       -0.01394
C          0.76965        0.20439       -0.00747
C         -0.57880       -0.26655       -0.00495
C         -1.67404        0.65251       -0.01074
N         -1.39499        2.00120       -0.02727
H         -4.79620       -0.84892        0.00429
H         -3.87413       -2.95029        0.00723
H         -1.67950       -3.56282        0.00676
H          0.43233       -3.56621        0.00874
H          2.73643        3.43787       -0.14594
H          4.17963        2.46266       -0.12993
H         -2.15050        2.67693        0.01400
H         -0.43844        2.33091        0.01656
