31
Coordinates from ORCA-job ./opt_b97-3c_parallel
N         -5.85991        1.78624        0.00594
C         -4.81633        1.31950       -0.00583
C         -3.49114        0.73226       -0.00440
C         -2.45907        1.65948        0.09212
C         -1.08468        1.46703        0.10126
C         -0.33483        0.28735        0.05111
C         -0.84328       -1.03357       -0.00029
C         -2.18839       -1.40942       -0.07349
C         -3.36367       -0.66062       -0.09462
N         -4.50512       -1.41637       -0.21146
N         -0.00378       -2.10821        0.00698
C          1.33390       -1.95200        0.03195
N          2.07251       -3.09705        0.10141
C          1.88850       -0.67811        0.03202
C          3.20686       -0.24367        0.00456
N          4.27756       -1.08342       -0.13214
C          3.30887        1.20308        0.04456
C          4.34506        2.18244       -0.04401
N          5.42690        2.50349       -0.22615
C          1.89401        1.52968        0.06305
C          1.06914        0.41159        0.05555
H         -2.76076        2.70418        0.15805
H         -0.53976        2.40086        0.16790
H         -2.34723       -2.48755       -0.13061
H         -4.44699       -2.42688       -0.15141
H         -5.41208       -0.97062       -0.11748
H          3.02488       -3.01657        0.44030
H          1.57795       -3.95538        0.31772
H          5.18029       -0.66355       -0.32772
H          4.10322       -2.00314       -0.52275
H          1.52071        2.54881        0.06840
