28
Coordinates from ORCA-job ./opt_b97-3c_parallel
N          3.68333        1.81330       -0.40507
C          2.62993        1.06582        0.04001
C          2.71504       -0.35611        0.24174
C          1.62938       -1.24077        0.21713
N          1.99845       -2.54636        0.40846
C          0.26604       -0.85004        0.05720
C         -0.79280       -1.79030       -0.14142
N         -0.61328       -3.13219       -0.32667
N         -2.10342       -1.45945       -0.24656
C         -2.41828       -0.15779       -0.16172
C         -3.77633        0.33241       -0.24676
C         -3.47803        1.74909       -0.09923
C         -2.12613        2.02207        0.04473
C         -1.47310        0.81757        0.00265
C         -0.11907        0.51463        0.10892
C          0.80967        1.59853        0.30570
N          1.86833        1.85757        0.13210
H          3.60952        2.82403       -0.43681
H          4.60178        1.39438       -0.49585
H          3.72892       -0.72037        0.39567
H          1.27761       -3.20093        0.69356
H          2.94412       -2.73340        0.72232
H          0.31237       -3.44867       -0.59319
H         -1.40361       -3.66594       -0.67021
H         -4.66407       -0.16976        0.12390
H         -4.20184        2.56026       -0.09244
H         -1.67922        3.00482        0.17115
H          0.64809        2.66404        0.18539
