30
Coordinates from ORCA-job ./opt_b97-3c_parallel
N          2.91885       -3.27547        0.62054
C          2.38649       -2.28421        0.42434
C          1.70064       -1.03606        0.16201
C          2.63899        0.02738       -0.11435
N          3.71624       -0.08697       -0.95421
N          2.66801        1.12098        0.03598
C          1.76521        1.73643        0.19619
N          2.35239        2.70282        0.97311
C          0.34360        1.60567       -0.03796
C         -0.23651        2.91337       -0.25915
N         -0.68370        3.95357       -0.41991
C         -0.35774        0.37450       -0.02400
C          0.29513       -0.88552        0.13834
C         -0.48665       -2.05787        0.25287
C         -1.87540       -2.02960        0.16780
N         -2.60486       -3.18031        0.27575
C         -2.48493       -0.80237       -0.04368
C         -3.87905       -0.52077       -0.16635
N         -3.37016        0.48210       -0.25191
C         -2.71695        1.39803       -0.31569
C         -1.76630        0.34367       -0.13643
H          4.04882       -1.01116       -1.20752
H          4.37645        0.68045       -1.01653
H          1.82190        3.53573        1.20483
H          3.36347        2.77803        0.98318
H         -0.02333       -3.03103        0.38959
H         -2.14363       -4.02119        0.60538
H         -3.60899       -3.10941        0.39618
H         -4.68260       -1.18785       -0.45454
H         -2.90007        2.00607       -1.19418
