24
Coordinates from ORCA-job ./opt_b97-3c_parallel
N         -4.01527       -1.15052        0.06734
C         -2.79186       -0.54274        0.03082
C         -2.97238        0.88617        0.13026
C         -1.54440        0.96465        0.08540
N         -0.94138        2.17021        0.13839
C          0.40940        2.18319        0.09836
C          1.20010        1.02906        0.01460
C          2.59273        1.20449       -0.00203
C          3.54507        0.18403       -0.04738
C          3.22191       -1.21740       -0.06264
N          2.30886       -1.83548       -0.10194
C          1.27261       -1.45878       -0.14209
C          0.54580       -0.21688       -0.04515
C         -0.85236       -0.22907       -0.01123
C         -1.64947       -1.42006       -0.07008
H         -4.82642       -0.60112        0.33100
H         -4.06118       -2.15707        0.18041
H         -3.65774        1.47396       -0.47232
H          0.86106        3.17243        0.14403
H          2.97584        2.22203        0.03003
H          4.60497        0.42623       -0.05189
H          3.88424       -2.06056        0.09756
H          0.89992       -2.45033       -0.37331
H         -1.50045       -2.31618        0.52333
