28
Coordinates from ORCA-job ./opt_b97-3c_parallel
N         -0.59882        3.28380       -1.28704
C         -0.17706        2.85453       -0.31419
C          0.09728        1.44732       -0.17672
C          1.54739        1.61590       -0.14475
C          2.29347        0.40936       -0.06019
C          3.65077        0.22850        0.01988
N          4.48662        0.94561        0.06530
C          3.83564       -1.13564        0.05481
C          2.67676       -1.79405       -0.00836
C          1.70286       -0.85138       -0.07457
C          0.33432       -1.01405       -0.10119
N         -0.04939       -2.34012       -0.14209
C         -1.37230       -2.60867       -0.14713
N         -2.68326       -2.26984       -0.09485
C         -2.93046       -0.92217        0.03510
N         -3.99287       -1.23378        0.11309
C         -2.00583        0.20396        0.03531
C         -2.73776        1.41844        0.25041
N         -3.37706        2.34435        0.44742
C         -0.52499        0.18431       -0.08631
H          2.09135        2.56338       -0.17671
H          4.46908        1.95859        0.16920
H          5.43997        0.64988        0.26963
H          4.80599       -1.62405        0.12661
H          2.55332       -2.87457        0.00335
H         -1.12140       -3.67772       -0.23668
H         -4.38736       -0.31499        0.32198
H         -4.76364       -1.89384        0.21676
