25
Coordinates from ORCA-job ./opt_b97-3c_parallel
N         -2.54291       -3.24370        0.33132
C         -1.47614       -2.94798        0.04649
C         -0.57409       -1.83065        0.08179
C          0.72163       -2.32152        0.03275
C          1.82293       -1.49092        0.06657
C          3.04454       -2.08462       -0.03529
N          3.68139       -1.02603       -0.47805
C          2.83696        0.05527       -0.42146
C          1.53287       -0.08707        0.16093
C          0.20648        0.47578        0.20175
C          0.09567        1.92641        0.33903
C          1.27131        2.72178        0.51807
N          2.19203        3.38464        0.65074
C         -1.14150        2.68469        0.25636
N         -2.43846        2.27609       -0.03649
C         -2.73972        0.94083       -0.06881
N         -3.80315        0.90374       -0.35714
N         -2.11971       -0.13872        0.23028
C         -0.87875       -0.47603        0.15834
H          0.89894       -3.39420       -0.03872
H          3.84674       -2.83075       -0.14475
H          3.52556        0.82023       -0.81265
H         -1.18783        3.78334        0.31036
H         -4.47617        1.65497       -0.50607
H         -4.28176        0.03902       -0.60886
