30
Coordinates from ORCA-job ./opt_b97-3c_parallel
N         -4.70824        2.26610        0.04566
C         -3.74758        1.64556        0.02876
C         -2.51872        0.87277        0.00563
C         -1.37452        1.66932        0.01767
C         -0.01618        1.34166       -0.01409
C          0.82532        2.46700       -0.00941
C          2.20588        2.35362       -0.06203
C          2.77061        1.09275       -0.11202
C          4.18752        0.89861       -0.18892
C          3.97802       -0.52617       -0.16015
N          5.11369       -1.27888       -0.06232
C          2.73557       -1.25553       -0.14468
C          1.97143       -0.03553       -0.09838
C          0.55768        0.05297       -0.05645
C         -0.15297       -1.15595       -0.06190
C         -1.52277       -1.43039       -0.04240
C         -1.81145       -2.85338       -0.04721
N         -2.02736       -3.97647       -0.04004
C         -2.60220       -0.52919       -0.02444
N         -3.87017       -1.07505       -0.04153
H         -1.58369        2.73851        0.04787
H          0.40789        3.47144        0.02671
H          2.83135        3.24331       -0.06800
H          4.92718        1.45342        0.37937
H          6.01289       -0.83339       -0.21021
H          5.04985       -2.28353       -0.18588
H          2.54558       -2.14850        0.44239
H          0.45125       -2.05682       -0.09322
H         -4.67777       -0.47341        0.08363
H         -3.98628       -2.07794        0.06266
