27
Coordinates from ORCA-job ./opt_b97-3c_parallel
N         -3.95649        2.08463       -0.17529
C         -2.96773        1.51574       -0.11167
C         -1.72391        0.78123       -0.03721
C         -0.46133        1.40553       -0.03385
N         -0.45537        2.77020       -0.19226
C          0.74231        0.63254        0.04950
C          2.03267        1.23789        0.16202
N          2.20027        2.55927        0.48160
C          3.25077        0.55988        0.03268
C          3.39815       -0.82574       -0.31862
N          2.80574       -1.74473       -0.18197
C          1.74128       -1.67994        0.09840
C          0.61170       -0.78484        0.04743
C         -0.65251       -1.37377        0.04209
N         -0.97672       -2.68733        0.07118
C         -2.10256       -2.76566        0.06811
C         -2.82945       -1.51838        0.02828
C         -1.76065       -0.59944        0.01753
H          0.40844        3.20306       -0.50185
H         -1.32342        3.22337       -0.45805
H          3.11942        2.86390        0.78202
H          1.40072        3.05520        0.86176
H          4.20265        1.07109        0.16174
H          4.28296       -1.33526       -0.68314
H          1.74448       -2.76474        0.08219
H         -2.47901       -3.78103        0.10436
H         -3.90389       -1.36468        0.03671
