28
Coordinates from ORCA-job ./opt_b97-3c_parallel
N         -4.90448        0.61447        0.54131
C         -3.80022        0.36794        0.39115
C         -2.42620        0.00590        0.17117
C         -2.32023       -1.31957       -0.22158
N         -2.88064       -2.24612       -0.47259
N         -1.30580       -2.20989       -0.28501
C          0.03319       -1.90040       -0.03110
C          0.62348       -0.58795        0.05040
C         -0.03124        0.60847       -0.11536
C          0.82747        1.61518       -0.51859
N          0.94083        2.64373       -0.90705
N          2.16784        1.66345       -0.42747
C          2.77567        0.54276       -0.00685
N          4.10550        0.27024        0.08701
C          4.08462       -1.08791        0.37656
C          2.87356       -1.74903        0.42540
C          2.06828       -0.66601        0.20119
C         -1.28763        0.87835        0.36733
N         -1.49540        1.85921        0.84751
H         -3.08099       -3.24271       -0.57893
H         -3.79528       -1.79368       -0.54192
H          0.21369       -2.98752       -0.03073
H          1.42238        3.52860       -0.74126
H          0.06052        2.88857       -1.35940
H          5.13768       -1.40259        0.45777
H          2.74084       -2.68313       -0.11688
H         -2.44761        2.06153        1.15606
H         -0.97163        2.71827        1.01628
