28
Coordinates from ORCA-job ./opt_b97-3c_parallel
N          4.79758       -1.86182        0.69718
C          3.73086       -1.74533        0.30287
C          2.68627       -0.80488        0.04789
C          1.29474       -1.21583        0.05976
C          0.39354       -0.16201       -0.03578
C          1.14655        0.97868       -0.08008
C          0.52489        2.22338       -0.13573
N          1.20356        3.40006       -0.26172
N         -0.81737        2.31857       -0.07420
C         -1.58385        1.19779        0.00397
C         -2.95693        1.44766        0.11393
C         -3.98161        0.45447        0.28743
N         -4.10818       -0.63350        0.16411
C         -3.26044       -1.29056       -0.09220
C         -1.81956       -1.27092       -0.08467
C         -1.40629       -2.61222       -0.41722
N         -1.09477       -3.67549       -0.69957
C         -1.01628       -0.10982       -0.03064
C          2.48910        0.62918       -0.02531
N          3.50830        1.53725        0.04807
H          1.01207       -2.24868        0.22094
H          0.66584        4.22494       -0.50321
H          2.15820        3.35525       -0.60008
H         -3.34093        2.46534        0.13993
H         -4.97656        0.58357        0.69947
H         -3.93381       -2.12939       -0.23936
H          4.42390        1.19521        0.32184
H          3.27334        2.48805        0.31202
