32
Coordinates from ORCA-job ./opt_b97-3c_parallel
N          5.33267       -2.11425       -0.07600
C          4.30503       -1.61500       -0.08728
C          2.99178       -0.99678       -0.09500
C          1.96726       -1.92803       -0.15770
C          0.60130       -1.73568       -0.13424
C         -0.14136       -0.55669       -0.09920
C          0.33848        0.78158       -0.12499
N         -0.58323        1.80180       -0.16746
C         -1.91196        1.58559       -0.14769
N         -2.72634        2.67884       -0.20056
C         -2.39917        0.29460       -0.06191
C         -3.73994       -0.18087        0.03858
N         -5.02935        0.24688        0.16543
N         -3.11155       -1.12280        0.04199
C         -2.31948       -1.93014        0.07507
N         -2.55584       -3.26326        0.24483
C         -1.53716       -0.73918       -0.04510
C          1.70159        1.19127       -0.08777
C          1.92741        2.63765       -0.08028
N          2.11997        3.76523       -0.06594
C          2.88209        0.40407       -0.03762
N          4.08532        1.07800        0.06913
H          2.26540       -2.97516       -0.20692
H          0.05049       -2.67074       -0.16222
H         -2.31139        3.56891       -0.45310
H         -3.70563        2.53492       -0.41943
H         -5.74725       -0.41635        0.43404
H         -5.20671        1.22891        0.34508
H         -3.49545       -3.57753        0.45925
H         -1.78656       -3.87630        0.49048
H          4.92094        0.54869        0.29553
H          4.07192        2.06436        0.30815
