30
Coordinates from ORCA-job ./opt_b97-3c_parallel
N         -3.57438       -2.03320       -0.48703
C         -3.06944       -1.01358       -0.37789
C         -2.45394        0.28303       -0.24730
C         -3.16897        1.47548       -0.28447
C         -2.27013        2.52827       -0.19554
C         -1.00532        1.97188       -0.10926
C          0.21302        2.61504       -0.02752
C          1.37953        1.84804        0.01642
N          2.53543        2.58175       -0.01643
C          1.33429        0.41895        0.01062
C          2.51888       -0.37802        0.05766
N          3.73649        0.13056        0.42367
C          2.56477       -1.74225       -0.25802
C          1.45038       -2.50857       -0.75105
N          0.40896       -2.49066       -0.37878
C         -0.09919       -1.62994        0.09062
N         -0.59540       -2.21917        1.22206
C          0.05146       -0.19928       -0.03908
C         -1.09706        0.59967       -0.13072
H         -4.24806        1.56816       -0.38182
H         -2.51283        3.58805       -0.20492
H          0.25630        3.70244       -0.03138
H          3.38619        2.10455       -0.29543
H          2.46731        3.57079       -0.22779
H          3.74953        1.02594        0.90064
H          4.48679       -0.51991        0.62825
H          3.49210       -2.30771       -0.19426
H          1.46336       -3.44304       -1.29918
H         -0.72961       -3.22411        1.22910
H         -1.17366       -1.67011        1.84761
