31
Coordinates from ORCA-job ./opt_b97-3c_parallel
N         -5.02269       -0.28038       -0.17745
C         -3.96411        0.14546       -0.10758
C         -2.62734        0.69628       -0.00426
C         -2.58798        1.96521        0.55007
C         -1.54340        2.86654        0.48453
C         -0.22992        2.66663        0.07387
N          0.45492        3.84946       -0.04885
C          0.44401        1.43162       -0.07220
C          1.85937        1.50684       -0.13127
C          2.67824        0.38637       -0.17986
C          4.11303        0.53015       -0.17286
N          5.25006        0.64360       -0.15161
C          2.06966       -0.85006       -0.11146
C          2.67624       -2.09072        0.00672
C          1.66694       -3.01690        0.18635
C          0.45040       -2.34753        0.16189
C         -0.76875       -3.00575        0.56723
N         -1.72632       -3.54284        0.88523
C          0.69276       -0.97986       -0.07390
C         -0.16964        0.14791       -0.15207
C         -1.53437       -0.06397       -0.44984
N         -1.83079       -1.08652       -1.31908
H         -3.52799        2.37723        0.91420
H         -1.81630        3.88315        0.76435
H          1.33262        3.83855       -0.55644
H         -0.08577        4.70651       -0.08902
H          2.38011        2.45973       -0.09757
H          3.74438       -2.29451        0.03333
H          1.80814       -4.07603        0.38956
H         -2.79708       -1.38071       -1.41848
H         -1.10219       -1.74204       -1.57825
