34
Coordinates from ORCA-job ./opt_b97-3c_parallel
N          2.65225       -3.93776        0.72445
C          2.42834       -2.83368        0.52990
C          2.12783       -1.43166        0.29285
C          0.76249       -1.18346        0.20912
C          0.02809        0.00085        0.07095
C          0.56845        1.31182        0.01527
C         -0.35855        2.38115        0.10578
C         -1.72843        2.19709        0.15674
C         -2.24447        0.91970        0.07841
C         -3.66147        0.67928        0.08021
C         -4.74252        1.57500        0.36572
N         -5.64361        2.27064        0.26255
C         -3.33310       -0.72174       -0.03303
N         -4.54501       -1.36240       -0.06221
C         -2.07304       -1.42454       -0.11413
C         -2.01547       -2.50914       -1.05048
N         -1.80608       -3.63215       -0.99242
C         -1.38505       -0.16192        0.02378
C          1.93632        1.66986       -0.14810
N          2.17751        3.00283       -0.42609
C          3.09780        0.85435       -0.11041
C          4.37769        1.53008       -0.32950
N          5.37463        2.05925       -0.51401
C          3.19064       -0.52961        0.14584
N          4.45839       -1.07631        0.24303
H          0.18109       -2.08903        0.34042
H         -0.04939        3.42050        0.16461
H         -2.38469        3.06139        0.23206
H         -4.56961       -2.33492       -0.35049
H         -5.38268       -0.80691       -0.20286
H          1.40371        3.57462       -0.74410
H          3.10581        3.26878       -0.73865
H          5.25897       -0.45589        0.30661
H          4.56073       -2.02557        0.58698
