27
Coordinates from ORCA-job ./opt_b97-3c_parallel
N         -4.92134       -2.27951        0.09513
C         -3.99735       -1.61263        0.01970
C         -2.83538       -0.78392       -0.03178
C         -2.88764        0.58508       -0.07775
C         -1.54293        0.86321       -0.06126
C         -0.96558        2.17421       -0.08087
N         -1.19224        3.25136       -0.11089
N          0.37624        2.26058       -0.04173
C          1.22430        1.20909       -0.00264
N          2.55926        1.57510        0.02918
C          3.50526        0.59981        0.11398
C          3.80866       -0.70769        0.20082
C          2.81860       -1.60956       -0.02726
N          3.16464       -2.65249       -0.13385
C          1.38526       -1.42371       -0.07582
C          0.66432       -0.15173       -0.02098
C         -0.72240       -0.22946       -0.03746
C         -1.52234       -1.33216       -0.01777
H         -3.58563        1.13961        0.54665
H         -0.91619        4.21384       -0.30106
H         -2.19795        3.20346       -0.26880
H          4.43577        1.18750        0.14540
H          4.83147       -1.01470        0.42486
H          2.58319       -3.45535       -0.37246
H          4.12760       -2.98644       -0.16938
H          0.80355       -2.33336       -0.18369
H         -1.28752       -2.39102        0.02665
