30
Coordinates from ORCA-job ./opt_b97-3c_parallel
N          5.10295       -1.67424       -0.48830
C          4.08281       -1.18528       -0.32484
C          2.79004       -0.56964       -0.13854
C          2.78584        0.80890       -0.06982
C          1.71362        1.67411        0.09002
C          2.15874        3.05383        0.20148
N          2.52076        4.13439        0.29994
C          0.33065        1.37561        0.11659
N         -0.45750        2.49654        0.26348
C         -0.31114        0.09914        0.06111
C          0.33304       -1.17832        0.09985
C          1.71163       -1.43038       -0.00978
C         -0.47422       -2.35036        0.21886
N          0.02153       -3.61293        0.40486
N         -1.81691       -2.36609        0.19145
C         -2.37460       -1.16810        0.04597
C         -3.75011       -0.88842       -0.07163
C         -3.72778        0.54556       -0.21165
N         -4.88320        1.25099       -0.37421
N         -2.69064        0.97778       -0.17907
C         -1.73352        0.02847       -0.01389
H          3.77094        1.27510       -0.13391
H         -0.03547        3.41428        0.16873
H         -1.46144        2.42184        0.15440
H          2.02381       -2.46981       -0.05035
H          0.97676       -3.71096        0.72890
H         -0.63464       -4.34027        0.66780
H         -4.60850       -1.55221       -0.07714
H         -5.75776        0.76282       -0.53127
H         -4.84027        2.23991       -0.59412
