30
Coordinates from ORCA-job ./opt_b97-3c_parallel
N         -0.55256       -3.06293       -0.93816
C         -0.91622       -2.58891        0.03787
C         -1.07786       -1.16103        0.03479
C         -2.48144       -1.05022       -0.02490
N         -3.51323       -1.47459       -0.06920
N         -3.28460        0.09645        0.02682
C         -2.73857        1.36822        0.02301
N         -3.46138        2.19597        0.14782
N         -1.55708        1.85547       -0.12660
C         -0.41173        1.26122       -0.06730
C          0.49913        2.31876       -0.15084
C          1.90663        1.98286       -0.12391
N          2.63807        2.79998       -0.23130
C          2.25625        0.65444        0.04158
C          3.51605       -0.02018        0.14545
N          3.35135       -1.38258        0.34184
C          1.98484       -1.62624        0.34756
N          2.32637       -2.66894        0.51573
C          1.33637       -0.42158        0.14363
C         -0.08232       -0.08666        0.04809
H         -3.36232       -2.23376       -0.74046
H         -4.42946       -1.68638        0.33819
H         -3.21906        3.18747        0.09262
H         -4.44120        2.18860        0.43899
H          0.18877        3.36256       -0.24400
H          2.32766        3.74578       -0.45812
H          3.65769        2.84612       -0.25257
H          4.51621        0.44000        0.09890
H          2.90097       -3.06126        1.26768
H          2.21347       -3.43489       -0.15114
