26
Coordinates from ORCA-job ./opt_b97-3c_parallel
N         -2.77871        3.41764       -0.07777
C         -2.02562        2.55788       -0.08049
C         -1.06872        1.47888       -0.07096
C          0.29080        1.77171       -0.01374
C          1.24330        0.75183       -0.00801
C          2.62616        1.15029        0.04691
N          3.65193        0.74835        0.07247
C          3.87734       -0.33084        0.05285
C          3.15558       -1.57221       -0.01365
C          1.76336       -1.67430       -0.06384
C          0.84766       -0.60193       -0.05703
C         -0.53236       -0.87743       -0.10391
C         -1.08744       -2.20280       -0.14097
C         -2.40562       -1.62437       -0.16654
N         -3.41520       -2.54105       -0.09386
C         -2.84953       -0.25503       -0.17471
C         -1.47136        0.14359       -0.11427
H          0.61442        2.81023        0.02426
H          3.04173        2.15197        0.02431
H          4.94998       -0.17500        0.02177
H          3.76983       -2.46919       -0.02389
H          1.38244       -2.68944       -0.11566
H         -0.77692       -3.02842        0.49213
H         -4.36916       -2.23332       -0.24834
H         -3.19828       -3.52191       -0.23305
H         -3.64652        0.16161        0.43387
