35
Coordinates from ORCA-job ./opt_b97-3c_parallel
N         -5.74642       -0.30608       -0.38262
C         -4.60585       -0.28677       -0.30504
C         -3.16208       -0.27445       -0.19168
C         -2.39492       -1.44261       -0.33441
N         -3.04433       -2.62914       -0.56573
C         -0.99392       -1.53308       -0.25362
C         -0.00923       -0.53569       -0.08997
C         -0.27360        0.84352       -0.03497
N         -1.53321        1.30696        0.01722
C         -2.58353        1.01634        0.05538
N         -3.17348        2.03855        0.74544
C          0.78750        1.75762       -0.06464
C          0.53228        3.18401       -0.03217
N          0.34253        4.31162        0.00071
C          2.10183        1.29985       -0.16499
N          3.17654        2.14817       -0.22964
C          2.44340       -0.09819       -0.12934
C          3.69752       -0.79673       -0.06767
N          5.00789       -0.50589       -0.31957
C          3.33272       -2.15626        0.20890
C          1.90940       -2.32891        0.28425
N          1.51968       -3.53538        0.79350
C          1.35655       -1.03355       -0.00963
H         -4.03075       -2.60232       -0.80310
H         -2.50311       -3.42703       -0.87970
H         -0.61526       -2.54585       -0.36174
H         -4.18068        2.03724        0.86523
H         -2.69404        2.92961        0.81375
H          4.10029        1.76774       -0.05307
H          3.02639        3.13630       -0.05445
H          5.66295       -1.27264       -0.42731
H          5.22457        0.36846       -0.78645
H          4.05152       -2.95811        0.35170
H          2.22918       -4.16189        1.15714
H          0.57931       -3.62042        1.16442
