30
Coordinates from ORCA-job ./opt_b97-3c_parallel
N          1.61609        3.70350       -1.39963
C          0.97399        2.85771       -0.97640
C          0.13667        1.79256       -0.47099
C         -1.21518        2.10167       -0.48709
C         -2.18168        1.15020       -0.06275
C         -3.55383        0.90453        0.29491
N         -4.24805        2.07457        0.41306
C         -4.10220       -0.41168        0.48069
C         -2.81834       -1.03578        0.37181
C         -1.75433       -0.21093        0.02472
C         -0.38549       -0.56953       -0.09554
C         -0.00146       -1.93115       -0.18058
C         -0.81213       -3.07400       -0.53393
N         -1.43891       -3.98414       -0.82733
C          1.33489       -2.41665       -0.40988
N          2.34038       -2.14360       -0.04784
C          2.54586       -1.09887        0.23590
N          3.78009       -1.40894        0.75516
C          1.97706        0.22500        0.04997
C          2.96023        1.22533        0.42141
N          3.73675        2.00274        0.73903
C          0.58978        0.47890       -0.16567
H         -1.57065        3.08650       -0.78420
H         -3.81561        2.93413        0.09289
H         -5.26028        2.03998        0.46702
H         -4.88394       -0.69268        1.17908
H         -2.73298       -2.06760        0.68992
H          1.67142       -3.36793       -0.81191
H          4.16377       -2.33888        0.62555
H          4.42921       -0.65958        0.97178
