29
Coordinates from ORCA-job ./opt_b97-3c_parallel
N         -6.30314       -0.77723       -0.70207
C         -5.24304       -0.40367       -0.49656
C         -3.91386        0.08119       -0.23437
C         -3.57372        1.39522        0.02295
C         -2.19770        1.41513        0.15088
C         -1.38243        2.50047        0.33215
N         -0.05369        2.32898        0.30066
C          0.55689        1.10480        0.16513
C          1.97773        1.19459        0.05551
C          2.54935        2.54419        0.10420
N          3.01229        3.58976        0.13943
C          2.93510        0.17290       -0.14978
N          4.24396        0.55611       -0.38963
C          2.72372       -1.21100       -0.09857
C          3.85464       -2.11297       -0.23206
N          4.74077       -2.82932       -0.32270
C          1.53389       -1.87402        0.14764
C          0.22804       -1.40440        0.24579
C         -0.64703       -2.49113        0.63207
N         -1.30546       -3.36981        0.95132
C         -0.25466       -0.07802        0.12634
C         -1.66023        0.15077        0.02861
C         -2.75322       -0.68211       -0.25532
H         -4.24747        2.24731        0.06925
H         -1.75740        3.51846        0.42265
H          4.97929       -0.14320       -0.40243
H          4.50338        1.53450       -0.31304
H          1.64531       -2.95638        0.25192
H         -2.74469       -1.73387       -0.51671
