30
Coordinates from ORCA-job ./opt_b97-3c_parallel
N         -4.97139        1.10191       -0.07329
C         -3.88366        0.95823       -0.39561
C         -2.69057        0.19390       -0.20490
C         -2.39325       -1.20251       -0.00941
N         -3.38842       -2.10725        0.23719
C         -1.11719       -1.86258        0.06143
C         -0.40989       -0.62077       -0.11331
C         -1.27850        0.45240       -0.18608
N         -0.86940        1.72412       -0.22646
C          0.44862        1.94679       -0.12794
N          0.72711        3.28606       -0.16849
C          1.43173        0.92922       -0.01042
C          2.74454        1.39140        0.20302
C          3.93128        0.70542        0.39413
C          4.15827       -0.65037        0.31245
C          3.24459       -1.63741        0.00308
C          1.86485       -1.55904       -0.18906
N          1.38033       -2.77779       -0.58761
C          1.00281       -0.42888       -0.09562
H         -3.14000       -3.02195        0.59733
H         -4.31991       -1.75516        0.43386
H         -0.86836       -2.63172        0.78703
H         -0.01924        3.91550       -0.44206
H          1.67894        3.57490       -0.36062
H          2.90218        2.46097        0.29134
H          4.80441        1.31783        0.60830
H          5.18532       -0.97515        0.46284
H          3.69253       -2.62652       -0.08841
H          2.04896       -3.49153       -0.85522
H          0.47153       -2.80473       -1.03637
