31
Coordinates from ORCA-job ./opt_b97-3c_parallel
N         -2.74856        3.65781        0.40287
C         -2.05994        2.74835        0.33582
C         -1.18298        1.60591        0.23798
C          0.18616        1.79677        0.16997
C          1.12003        0.73625        0.06272
C          2.47468        1.14759       -0.06664
N          2.80517        2.48083       -0.03417
C          3.60941        0.37659       -0.29309
C          3.74661       -0.99249       -0.30830
C          2.78151       -1.93632       -0.03900
C          1.41369       -1.78071        0.16678
N          0.86866       -2.97853        0.55169
C          0.61479       -0.60356        0.08575
C         -0.80658       -0.75148        0.05535
C         -1.54455       -1.96444       -0.19087
C         -2.85152       -1.39194       -0.01534
N         -3.93001       -2.22495       -0.08696
C         -3.07921        0.02069        0.11884
C         -1.67417        0.31932        0.14601
H          0.49572        2.83716        0.18969
H          2.13434        3.13999        0.34219
H          3.78620        2.73081        0.02215
H          4.54392        0.91320       -0.45372
H          4.75157       -1.37065       -0.48076
H          3.17062       -2.95306        0.00834
H          1.49747       -3.73232        0.80510
H         -0.04558       -2.96698        0.99047
H         -1.28895       -2.70437       -0.94345
H         -4.85280       -1.81797       -0.19361
H         -3.78887       -3.17715       -0.40604
H         -3.83722        0.59737       -0.40230
