27
Coordinates from ORCA-job ./opt_b97-3c_parallel
N         -2.00154        4.25157        0.09964
C         -1.71170        3.14701        0.05894
C         -1.33459        1.75412        0.01895
C         -2.37934        0.84538        0.01754
C         -2.34095       -0.54363       -0.04159
C         -3.67202       -1.12361       -0.08085
N         -4.72319       -1.56950       -0.12159
C         -1.21381       -1.39404       -0.05820
N         -1.50961       -2.73756       -0.16278
C          0.16109       -1.03952       -0.00479
C          1.09444       -2.11060        0.06737
N          2.43901       -1.99787        0.07044
C          2.92418       -0.75473       -0.00408
C          4.34509       -0.49213       -0.04147
C          4.26383        0.95357       -0.12804
C          2.96631        1.43775       -0.12699
C          2.11682        0.35545       -0.04943
C          0.71125        0.27011       -0.02720
C          0.02622        1.48985       -0.02504
H         -3.37444        1.29152        0.04685
H         -2.46315       -2.99951       -0.39162
H         -0.77585       -3.37015       -0.45987
H          0.78953       -3.15084        0.14179
H          5.11092       -1.06494        0.47149
H          5.10278        1.64116       -0.20025
H          2.70139        2.48879       -0.19528
H          0.63333        2.38876       -0.03217
