25
Coordinates from ORCA-job ./opt_b97-3c_parallel
N          5.56580        0.34979       -0.00638
C          4.44644        0.12385       -0.00411
C          3.03490       -0.17615       -0.00267
C          2.70409       -1.52549       -0.00121
C          1.44360       -2.09874        0.00002
C          0.20287       -1.47943        0.00008
C         -0.12283       -0.11940       -0.00041
C          0.77492        0.97254       -0.00147
C          0.25364        2.28264       -0.00106
C         -1.11565        2.53915        0.00061
C         -1.98924        1.46543        0.00124
N         -3.33642        1.51478        0.00144
C         -3.63298        0.42913        0.00109
C         -2.64394       -0.62672        0.00069
C         -3.32874       -1.88199       -0.00002
N         -3.22319       -3.02043        0.00009
C         -1.49082        0.19621        0.00048
C          2.17359        0.91949       -0.00265
H          3.53182       -2.23286       -0.00103
H          1.42337       -3.18671        0.00103
H         -0.61826       -2.18682        0.00121
H          0.92409        3.13956       -0.00270
H         -1.48922        3.56014        0.00028
H         -4.71580        0.37262        0.00099
H          2.67952        1.88450       -0.00355
