30
Coordinates from ORCA-job ./opt_b97-3c_parallel
N          4.48485        1.29654       -0.10733
C          3.36722        0.52071       -0.01802
C          3.42396       -0.91646        0.05156
C          2.35385       -1.88217        0.05617
N          1.30198       -1.54031        0.06290
C          0.47932       -0.46218        0.05196
C          1.04369        0.83389        0.01933
C          0.22549        1.96638        0.03624
C         -1.15908        1.85855        0.07775
N         -1.94820        2.97174        0.15550
C         -1.77663        0.56556        0.06123
C         -3.03843       -0.12947       -0.01424
N         -4.17005        0.60507       -0.24048
C         -3.08150       -1.55800        0.18397
C         -1.66679       -1.77282        0.13960
N         -1.15138       -3.03966        0.18667
C         -0.92671       -0.59476        0.08271
N          2.38267        1.02456       -0.00709
H          4.39622        2.29074       -0.28321
H          5.38945        0.86271       -0.25425
H          4.36729       -1.44929        0.14433
H          2.42235       -2.95915        0.14136
H          0.68346        2.95350        0.03534
H         -1.50275        3.86428        0.33539
H         -2.90215        2.84862        0.47192
H         -4.07084        1.56857       -0.54661
H         -5.04225        0.12536       -0.43972
H         -3.85742       -2.24596       -0.13600
H         -1.76617       -3.83071        0.03695
H         -0.15464       -3.16363        0.04377
