30
Coordinates from ORCA-job ./opt_b97-3c_parallel
N          0.97346        4.32030       -0.12251
C          0.54521        3.26083       -0.09511
C         -0.01551        1.93048       -0.06097
C         -1.40800        1.81080       -0.05605
C         -1.95496        0.53503       -0.01836
C         -3.32393        0.14451        0.00380
N         -4.52341        0.79353        0.00150
N         -2.75046       -0.83248        0.02751
C         -2.03301       -1.70985        0.04900
N         -1.91633       -3.06756        0.10673
C         -1.17853       -0.56832        0.00738
C          0.21682       -0.50049       -0.00018
N          0.95401       -1.63559        0.01809
C          2.00182       -1.98344        0.01535
N          2.08261       -3.33925       -0.11090
C          3.15929       -1.12434        0.04347
C          3.08660        0.31515        0.01026
N          4.18234        1.12157        0.10458
N          2.15882        0.91326       -0.01982
C          0.80956        0.78478       -0.02963
H         -2.05076        2.68815       -0.07723
H         -4.55876        1.79642       -0.14336
H         -5.38467        0.26481       -0.07942
H         -1.00070       -3.47673        0.25844
H         -2.73271       -3.63583        0.30061
H          2.98022       -3.77357       -0.29406
H          1.24576       -3.87405       -0.31311
H          4.14157       -1.58967        0.06406
H          4.06161        2.12019        0.23057
H          5.08956        0.71851        0.31008
