34
Coordinates from ORCA-job ./opt_b97-3c_parallel
N          3.04206       -3.98112       -0.89467
C          2.63968       -2.94715       -0.61937
C          2.11398       -1.63548       -0.28639
C          0.74678       -1.64278       -0.04115
C         -0.15993       -0.58519        0.04623
C          0.11817        0.80172        0.03445
C          1.39056        1.34231        0.37156
N          1.37833        2.58153        0.98139
C          2.67313        0.74855        0.25104
C          3.81852        1.59517        0.58099
N          4.71368        2.25226        0.85475
C          2.99496       -0.54864       -0.19927
N          4.32135       -0.81908       -0.48137
C         -0.98684        1.68274       -0.22153
N         -0.79574        2.99338       -0.59950
C         -2.31884        1.22466       -0.23414
C         -3.43818        2.10823       -0.48994
N         -4.31220        2.81263       -0.70639
C         -2.55951       -0.11988       -0.00624
N         -3.74992       -0.76096        0.05062
C         -3.52714       -1.84913        0.21564
N         -4.50967       -2.77106        0.42127
C         -2.13694       -2.23042        0.24370
C         -1.50800       -0.96848        0.10477
H          0.30976       -2.63818       -0.05602
H          0.50743        3.09733        1.05323
H          2.25115        3.05850        1.18262
H          4.61173       -1.77981       -0.63089
H          5.02982       -0.13290       -0.24202
H          0.14158        3.29270       -0.84762
H         -1.57874        3.50631       -0.99186
H         -4.28385       -3.75375        0.52612
H         -5.48433       -2.49850        0.35605
H         -1.73219       -3.21262        0.46498
