26
Coordinates from ORCA-job ./opt_b97-3c_parallel
N          4.65993       -1.63464       -0.00423
C          3.67566       -1.05309       -0.00128
C          2.41910       -0.33026       -0.00073
C          1.29423       -1.15640       -0.00076
C         -0.06856       -0.84768       -0.00074
C         -0.91251       -1.97701       -0.00090
N         -2.26320       -1.93833       -0.00009
C         -2.80850       -0.71271        0.00042
C         -4.23399       -0.49331        0.00252
C         -4.24333        0.95599        0.00077
C         -2.96436        1.49318        0.00005
C         -2.06637        0.44651       -0.00005
C         -0.66168        0.43181       -0.00063
C          0.00304        1.66038       -0.00072
C          1.36334        1.93747       -0.00072
C          2.45290        1.07253       -0.00047
N          3.67031        1.70741       -0.00013
H          1.52016       -2.22258       -0.00086
H         -0.50215       -2.98552       -0.00140
H         -5.05487       -1.20290       -0.00394
H         -5.11095        1.61104        0.00055
H         -2.73722        2.55531       -0.00050
H         -0.60973        2.55532       -0.00076
H          1.59947        3.00044       -0.00092
H          4.52732        1.16370       -0.00136
H          3.72054        2.71999       -0.00125
