29
Coordinates from ORCA-job ./opt_b97-3c_parallel
N         -3.91564       -2.46869        0.33310
C         -3.08583       -1.68369        0.26389
C         -2.02640       -0.70232        0.13697
C         -2.54786        0.43967       -0.48105
N         -3.50207        0.75213       -0.96101
C         -1.85859        1.70423       -0.40527
C         -0.79798        1.90659        0.40546
N         -0.83965        2.84733        1.36080
C          0.30856        1.30076       -0.08298
C          1.43245        2.09043       -0.52755
C          2.71124        1.57617       -0.60036
C          2.88839        0.19717       -0.28920
N          4.03465       -0.46257       -0.33478
C          3.59697       -1.73803       -0.02446
N          2.31054       -1.86431        0.16022
C          1.81263       -0.67570        0.01128
C          0.52297       -0.12620        0.08847
C         -0.61063       -0.99261        0.44924
N         -0.47226       -2.03349        0.81139
H         -4.10521       -0.06795       -0.91838
H         -4.07816        1.54918       -0.69745
H         -2.25287        2.59642       -0.90066
H         -1.58805        3.53784        1.36365
H          0.01774        3.31496        1.64887
H          1.25747        3.13314       -0.78284
H          3.53551        2.20999       -0.91987
H          4.22585       -2.63674        0.06199
H          0.46867       -2.41673        0.88093
H         -1.09371       -2.81966        0.62844
