30
Coordinates from ORCA-job ./opt_b97-3c_parallel
N         -0.78691       -3.98937        0.01155
C         -0.39752       -2.91473        0.00814
C          0.10210       -1.55393        0.01758
C          1.48618       -1.37403        0.07399
N          2.39070       -2.40065        0.14163
C          2.05884       -0.06584        0.06501
C          3.19596        0.81682        0.01088
N          4.36798        0.17201       -0.26656
C          3.26210        2.23958        0.21092
C          1.83212        2.27702        0.15423
C          1.16924        1.05638        0.08023
C         -0.23082        0.88100        0.02837
C         -1.04555        2.02810        0.02713
C         -2.48168        2.06122        0.00031
N         -3.34734        1.37978       -0.04203
C         -3.20589        0.28928       -0.10221
N         -4.52753       -0.04835       -0.19064
C         -2.15310       -0.69103       -0.07607
C         -0.76690       -0.43813       -0.01380
H          2.04719       -3.33341        0.34268
H          3.34532       -2.17969        0.40412
H          5.19103        0.72217       -0.48514
H          4.32439       -0.78088       -0.61188
H          3.92401        2.93093       -0.30080
H          1.34369        3.24475        0.18116
H         -0.68562        3.05004        0.05289
H         -3.13911        2.91556        0.11617
H         -5.24096        0.66098       -0.06624
H         -4.80587       -1.02197       -0.13733
H         -2.58876       -1.68628       -0.10992
