21
Coordinates from ORCA-job ./opt_b97-3c_parallel
C         -3.12085        0.33666       -0.00042
C         -2.05434        1.30137        0.00047
C         -0.68809        1.00068        0.00071
N          0.15194        2.07489        0.00162
C          1.49106        1.88312        0.00217
C          2.01843        0.59873        0.00156
C          3.37602        0.17011        0.00206
N          2.76918       -0.78762        0.00105
C          2.02506       -1.64325        0.00013
C          1.20419       -0.47569        0.00054
C         -0.18867       -0.33048        0.00014
C         -0.98112       -1.48586       -0.00065
C         -2.41880       -1.49662       -0.00046
N         -3.23938       -0.75982       -0.00028
H         -4.18893        0.52333       -0.00006
H         -2.39704        2.33371        0.00102
H          2.11907        2.77140        0.00298
H          4.27659        0.77206        0.00240
H          1.73934       -2.68757        0.00031
H         -0.54729       -2.48217       -0.00158
H         -3.08333       -2.35320       -0.00067
