26
Coordinates from ORCA-job ./opt_b97-3c_parallel
N         -2.59368        3.42703       -0.16731
C         -1.66898        2.75659       -0.18360
C         -0.52374        1.87618       -0.21908
C          0.74140        2.44343       -0.35504
C          1.83082        1.59659       -0.47624
C          3.17661        1.83888       -0.02942
C          3.75401        0.73884        0.52133
C          2.90199       -0.26590        0.43101
C          1.78743        0.18666       -0.20736
C          0.45010       -0.37694       -0.17493
C          0.30342       -1.86915       -0.27072
C          0.95862       -2.75232       -0.38416
N          1.87658       -3.34103       -0.73140
C         -0.85220       -2.60481       -0.25859
N         -2.21717       -2.44324       -0.08047
C         -2.57710       -1.11766        0.07641
N         -3.63969       -0.93812        0.30592
N         -1.87200       -0.03487       -0.00463
C         -0.67119        0.47845       -0.12860
H          0.87839        3.52341       -0.34564
H          3.61567        2.82824        0.05748
H          4.74557        0.69618        0.96689
H          3.08396       -1.27681        0.78773
H         -1.42370       -3.54594       -0.32034
H         -4.09373       -0.09943        0.66800
H         -4.24557       -1.71897        0.55627
