29
Coordinates from ORCA-job ./opt_b97-3c_parallel
N          5.47184       -0.02679       -0.04561
C          4.33475        0.00827       -0.07267
C          2.90277        0.07765       -0.07018
C          2.41645        1.37022        0.06792
N          2.80379        2.41264        0.18732
N          1.17821        1.90368        0.08340
C         -0.01303        1.17318        0.01325
N         -1.05794        2.10813        0.00561
C         -2.37479        1.66490       -0.06265
N         -2.99761        2.58695       -0.10059
C         -2.67275        0.25304       -0.04217
C         -3.90108       -0.49057        0.04164
N         -3.65631       -1.80543        0.12708
C         -2.32502       -1.96953        0.09115
N         -2.45323       -3.07384        0.18905
C         -1.64258       -0.68777       -0.01900
C         -0.23617       -0.27259       -0.05295
N          0.75685       -1.19173       -0.16142
C          2.11019       -1.12619       -0.20603
N          2.40117       -2.19543       -0.33196
H          3.81755        2.30585        0.32120
H          2.70226        3.43435        0.19409
H         -2.79831        3.52786       -0.46033
H         -3.98275        2.67231        0.17724
H         -5.00169       -0.55119        0.07843
H         -3.28240       -3.61552       -0.08924
H         -1.89022       -3.78778        0.66104
H          2.19930       -3.07618       -0.81840
H          3.38719       -2.32202       -0.06889
