35
Coordinates from ORCA-job ./opt_b97-3c_parallel
N          5.27753        1.17094        1.05634
C          4.38360        0.73128        0.49560
C          3.03609        0.30502        0.25568
C          2.77656       -1.07280       -0.07002
N          3.62508       -2.13611        0.08079
C          1.37728       -1.15621       -0.39836
C          0.49804       -2.27278       -0.57593
N          1.02442       -3.48819       -0.90835
C         -0.84713       -2.18528       -0.26251
C         -1.49702       -0.96158       -0.00985
C         -2.87406       -1.02272        0.31572
C         -3.57447       -2.29116        0.36989
N         -4.14281       -3.28428        0.40060
C         -3.69296        0.02261        0.73131
C         -3.47412        1.38329        0.67501
C         -2.43657        2.05563        0.05044
N         -2.64912        3.41010       -0.04155
C         -1.23079        1.50934       -0.42639
C         -0.42165        2.39933       -1.24570
N          0.19632        3.09924       -1.90600
C         -0.72018        0.21041       -0.19193
C          0.74754        0.11361       -0.16990
C          1.77309        0.99357        0.33765
N          1.86779        2.26969        0.82257
H          4.50331       -1.98387        0.56544
H          3.22309       -3.06661        0.11537
H          0.39566       -4.25082       -1.13688
H          1.97237       -3.52486       -1.26902
H         -1.38374       -3.12897       -0.27135
H         -4.67520       -0.24780        1.11868
H         -4.29271        1.99154        1.05897
H         -3.53981        3.80395        0.24052
H         -1.98801        3.99238       -0.54551
H          2.79709        2.66924        0.90557
H          1.11734        2.91282        0.59297
