28
Coordinates from ORCA-job ./opt_b97-3c_parallel
N          5.64371        0.85326       -0.01330
C          4.55594        0.50110       -0.01022
C          3.17750        0.08403       -0.00556
C          2.93432       -1.33188        0.01249
N          2.03491       -1.97263        0.01915
C          0.97213       -1.67222        0.01425
N          0.50485       -2.95515       -0.09199
C          0.16405       -0.46568        0.00688
C          0.77831        0.81296       -0.00606
C          2.16527        1.04584       -0.01273
C         -0.02032        1.97072       -0.01100
C         -1.41046        1.89279       -0.00257
C         -2.22298        3.08150       -0.00454
N         -2.87546        4.01946        0.00133
C         -1.97099        0.62709        0.01207
C         -3.31459        0.20567        0.02770
C         -3.14435       -1.22696        0.04346
N         -4.23977       -2.03942        0.05978
N         -2.07736       -1.59063        0.03959
C         -1.24244       -0.52224        0.01881
H          3.65920       -2.13954        0.01523
H          1.13472       -3.74334        0.00329
H         -0.49417       -3.12732       -0.03952
H          2.49606        2.08346       -0.02246
H          0.44633        2.95416       -0.01975
H         -4.23851        0.77584        0.02572
H         -4.12654       -3.03890        0.18326
H         -5.16424       -1.64103        0.18599
