29
Coordinates from ORCA-job ./opt_b97-3c_parallel
N         -3.55497        2.85484       -0.51506
C         -3.27664        1.79251       -0.19714
C         -2.49815        0.60920        0.01554
C         -3.54240       -0.38645       -0.05174
N         -3.26651       -1.47004        0.00290
C         -1.92340       -1.50783        0.09285
N         -1.15947       -2.60445        0.11286
C          0.17376       -2.42135        0.12029
C          0.83973       -1.17115        0.11475
C          2.25206       -1.23134        0.03422
N          2.88674       -2.44884        0.08386
C          3.15682       -0.19285       -0.16810
C          2.94351        1.17409       -0.19028
N          4.03530        1.95936       -0.44007
C          1.76411        1.83538        0.10595
C          0.48472        1.32834        0.31487
N         -0.37452        2.31634        0.71610
C          0.02484       -0.00524        0.18401
C         -1.37086       -0.25457        0.14015
H         -4.61565       -0.29472       -0.18903
H          0.70397       -3.36893        0.08665
H          2.37944       -3.24277        0.45758
H          3.89594       -2.45655        0.18327
H          4.19466       -0.49244       -0.31873
H          4.85660        1.52239       -0.84595
H          3.88136        2.94136       -0.64334
H          1.85876        2.91873        0.17158
H          0.02162        3.20919        0.99013
H         -1.24420        2.04494        1.16078
