23
Coordinates from ORCA-job ./opt_b97-3c_parallel
N         -2.54186       -3.15163        0.00128
C         -2.67192       -2.01621        0.00022
C         -2.05712       -0.72596       -0.00100
C         -3.08206        0.29559       -0.00129
N         -2.82749        1.39291       -0.00229
C         -1.47913        1.39647       -0.00293
C         -0.64253        2.50584       -0.00397
C          0.73846        2.30448       -0.00406
C          1.28038        1.01109       -0.00323
C          2.71530        0.88939       -0.00337
N          3.50513        0.11989       -0.00157
C          3.33774       -0.97050       -0.00088
C          2.21332       -1.86603       -0.00047
C          0.88037       -1.45060       -0.00114
C          0.43323       -0.11768       -0.00224
C         -0.94108        0.14184       -0.00220
H         -4.16191        0.19926       -0.00066
H         -1.05521        3.51209       -0.00457
H          1.39961        3.16801       -0.00473
H          3.46044        1.67721       -0.00111
H          4.39341       -1.21866        0.00078
H          2.45305       -2.92648        0.00052
H          0.13990       -2.24447       -0.00057
