30
Coordinates from ORCA-job ./opt_b97-3c_parallel
N          2.78516        3.59123        0.31535
C          2.39739        2.52031        0.20918
C          1.92306        1.14086        0.07829
C          2.94494        0.20589       -0.16477
N          4.23919        0.64076       -0.34736
C          2.84026       -1.17133       -0.23463
C          1.75031       -1.99571       -0.01474
N          2.10797       -3.32639       -0.02435
C          0.40169       -1.63324        0.17909
C         -0.44501       -2.76335        0.53780
N         -1.08368       -3.66677        0.82848
C         -0.17925       -0.33302        0.11157
C          0.51842        0.92228        0.13856
N         -0.19789        2.09218        0.21725
C         -1.53685        2.13791        0.20460
C         -2.24797        0.97001        0.08223
C         -3.65913        0.82013       -0.05169
N         -4.80959        1.54966       -0.08986
N         -3.24094       -0.22225       -0.12726
C         -2.64587       -1.17558       -0.18695
C         -1.60206       -0.21781        0.04085
H          4.99535       -0.03404       -0.36200
H          4.46306        1.61555       -0.17290
H          3.77991       -1.69210       -0.42553
H          1.43353       -4.01710        0.28934
H          3.09156       -3.57070        0.01410
H         -2.01019        3.11686        0.24219
H         -5.70709        1.07898       -0.11441
H         -4.78955        2.53937        0.12904
H         -2.80077       -1.82097       -1.04346
