30
Coordinates from ORCA-job ./opt_b97-3c_parallel
N          3.06831        3.18570       -0.07325
C          2.58073        2.15108       -0.04961
C          1.97988        0.82424       -0.01685
C          2.89740       -0.26149        0.03506
N          4.24853       -0.01143        0.06797
C          2.59443       -1.62515        0.05931
C          1.29531       -2.21527        0.00044
N          1.08659       -3.55446       -0.15532
N          0.36814       -1.64866        0.01239
C         -0.18661       -0.43247        0.00691
C          0.55563        0.77452       -0.02119
N         -0.12120        1.96968       -0.04402
C         -1.47111        2.01879       -0.03405
N         -2.05263        3.25282       -0.05692
C         -2.21272        0.84733        0.00274
C         -3.62170        0.63578        0.02702
N         -3.18124       -0.40964        0.04656
C         -2.57220       -1.36543        0.06444
N         -2.68799       -2.72262        0.12591
C         -1.58222       -0.33984        0.02247
H          4.88362       -0.76919        0.29210
H          4.56605        0.94097        0.21795
H          3.38731       -2.36941        0.10752
H          0.15734       -3.89475       -0.37537
H          1.87258       -4.16814       -0.33601
H         -1.46585        4.05717       -0.24934
H         -3.04266        3.32290       -0.26162
H         -4.41197        1.35972        0.18216
H         -1.85577       -3.27984        0.28455
H         -3.58865       -3.14138        0.32681
