34
Coordinates from ORCA-job ./opt_b97-3c_parallel
N         -5.27481       -2.86029       -0.03798
C         -4.38486       -2.14255       -0.04884
C         -3.27059       -1.22217       -0.05091
C         -2.02713       -1.92433        0.04103
N         -1.06832       -1.39946        0.04269
C         -0.33129       -0.28043        0.02648
C         -0.97493        0.98056       -0.02116
C         -2.38726        1.12718       -0.09531
C         -3.41888        0.17131       -0.11807
N         -4.68945        0.68095       -0.21159
C         -0.18335        2.15675        0.01721
C         -0.76298        3.48643        0.03408
N         -1.21151        4.53846        0.05684
C          1.21038        2.07673        0.06921
N          2.03452        3.16778        0.16306
C          1.88290        0.81765        0.01939
C          3.09756        0.04517       -0.04844
N          4.16159        0.87666       -0.27405
C          3.28140       -1.37561        0.10972
C          4.45967       -2.18566        0.14377
N          5.45820       -2.53148       -0.29227
C          1.85374       -1.53227        0.11802
N          1.38773       -2.81803        0.19486
C          1.08120       -0.36742        0.05896
H         -1.85523       -2.98668        0.17062
H         -2.77845        2.13786       -0.15004
H         -4.83401        1.68050       -0.11657
H         -5.48390        0.06168       -0.08876
H          2.99687        3.01817        0.44615
H          1.61717        4.06992        0.36683
H          3.98226        1.82833       -0.57622
H          5.06456        0.46762       -0.49162
H          0.39914       -2.98909        0.04779
H          2.03721       -3.58644        0.06324
