26
Coordinates from ORCA-job ./opt_b97-3c_parallel
N          3.84302        1.13774        0.10789
C          2.88280        0.60857        0.04895
N          3.08275       -0.75780        0.00204
C          1.90537       -1.47923       -0.07617
N          1.67187       -2.55651       -0.11680
N          0.65195       -1.14673       -0.12062
C         -0.05041       -0.03662       -0.13144
C          0.55619        1.23314       -0.04439
C         -0.21220        2.46723       -0.06708
C         -1.65562        2.38741       -0.08816
C         -2.21949        1.14704       -0.34441
C         -3.50735        0.62124       -0.06167
N         -3.47075       -0.69367        0.16510
C         -2.22281       -1.19592        0.09611
N         -2.29563       -2.26555        0.36368
C         -1.48735       -0.06988       -0.23165
N          1.85187        1.39187        0.04737
H          4.65547        0.52869        0.18263
H          4.18162        2.09470        0.18172
H          2.67871       -2.53625        0.04168
H          1.47626       -3.49329       -0.46382
H          0.28396        3.43379       -0.08709
H         -2.28679        3.25179        0.10745
H         -4.42057        1.23563       -0.05354
H         -1.29631       -2.47512        0.31959
H         -2.77583       -3.16286        0.39612
