28
Coordinates from ORCA-job ./opt_b97-3c_parallel
N          3.52833        3.54895        0.00785
C          2.68412        2.78145        0.00963
C          1.66306        1.78543        0.00878
C          0.26284        2.10022        0.04231
C         -0.68880        1.11089        0.04198
C         -1.90204        1.73617        0.02076
N         -3.24092        1.41496       -0.02915
C         -3.42873        0.04970       -0.02940
N         -4.53506        0.04590       -0.07930
N         -2.91373       -1.24149        0.00682
C         -1.52637       -1.41918        0.05585
N         -1.73110       -2.51117        0.10648
C         -0.49755       -0.37999        0.03477
C          0.93699       -0.67082       -0.01464
N          1.41602       -1.96882       -0.07137
C          2.80290       -2.00311       -0.12688
N          3.44002       -2.90579       -0.18250
C          2.98882       -0.65326       -0.09735
C          1.92419        0.37417       -0.03025
H          0.00939        3.15978        0.07535
H         -2.35496        2.74130        0.00753
H         -5.10721        0.89403       -0.08177
H         -5.21529       -0.71155       -0.16519
H         -0.91967       -3.09999        0.29848
H         -2.50375       -3.18375        0.06906
H          4.44027       -2.69998       -0.23879
H          3.38888       -3.92623       -0.20838
H          3.98613       -0.21454       -0.12773
