31
Coordinates from ORCA-job ./opt_b97-3c_parallel
N          3.36814        3.12538        0.51231
C          2.59381        2.29860        0.36310
C          1.58610        1.28694        0.18042
C          0.16051        1.54902        0.30204
N         -0.17601        2.56025        0.61685
C         -0.79747        0.58665        0.03494
C         -2.00018        0.92917       -0.53281
N         -2.63528        1.68534       -1.03257
N         -3.27344        0.40505       -0.46395
C         -3.25894       -0.86126        0.07936
N         -4.26123       -1.28697        0.25088
N         -2.53609       -1.95963        0.48788
C         -1.15055       -1.91018        0.36565
C         -0.37192       -0.72154        0.07285
C          1.02345       -1.05566       -0.07363
C          1.57093       -2.30274       -0.13848
C          2.82123       -1.74842       -0.16157
N          3.61798       -2.51197       -0.08453
C          3.22958       -0.44257       -0.12640
C          1.93118       -0.03300       -0.05657
H         -0.73694        3.08324        1.28785
H          0.54783        3.20209        0.29320
H         -1.79554        2.26215       -0.98697
H         -3.34921        2.25865       -1.48126
H         -4.97823       -0.56468        0.30503
H         -4.69569       -2.14753        0.58135
H         -1.07193       -2.99331        0.54409
H          1.25818       -3.00816       -0.90770
H          4.57493       -2.16576       -0.02694
H          3.68605       -3.50960       -0.28025
H          3.90790       -0.03953       -0.87727
