28
Coordinates from ORCA-job ./opt_b97-3c_parallel
N          0.41714        4.44395        0.18912
C          0.45670        3.30172        0.13880
C          0.52452        1.86010        0.08148
C          1.80689        1.32497        0.13305
C          2.02816       -0.08412        0.07052
C          2.90874       -1.22427        0.03037
N          4.19043       -0.75284       -0.04797
C          2.52961       -2.61176        0.09752
C          1.14137       -2.27275        0.01163
C          0.86308       -0.91381        0.01135
C         -0.43417       -0.37390       -0.03688
N         -1.48066       -1.21542       -0.08377
C         -2.56461       -1.35519       -0.11651
N         -2.95601       -2.62998        0.16763
C         -3.49671       -0.27970       -0.26155
C         -3.16485        1.07179       -0.22009
C         -1.89269        1.64449       -0.09399
C         -0.61801        1.02875       -0.01687
H          2.68320        1.96443        0.21295
H          4.34237        0.23009       -0.24400
H          4.94466       -1.40331       -0.23824
H          3.02695       -3.42972       -0.41296
H          0.35552       -3.02294       -0.03879
H         -3.93207       -2.82089        0.36409
H         -2.26778       -3.30777        0.47307
H         -4.53842       -0.57144       -0.37351
H         -3.99675        1.76773       -0.29737
H         -1.93946        2.72856       -0.07636
