28
Coordinates from ORCA-job ./opt_b97-3c_parallel
N         -4.82625       -2.62977       -0.32613
C         -3.96165       -1.89167       -0.20957
C         -2.86632       -0.96011       -0.08247
C         -3.22346        0.37978       -0.03989
C         -2.39374        1.48889        0.04167
C         -3.06106        2.76727        0.10208
N         -3.58663        3.78016        0.16665
C         -1.00306        1.52149        0.04779
C         -0.06774        0.47796        0.04392
C         -0.32669       -0.91561        0.07497
C         -1.59352       -1.52066       -0.00100
C          0.79270       -1.79033        0.16302
N          0.68797       -3.14803        0.28466
N          2.08187       -1.38991        0.16164
C          2.30578       -0.07283        0.07365
C          3.64818        0.46909        0.03214
C          4.97281        0.01542       -0.24876
N          6.06501       -0.31542       -0.18506
C          3.26251        1.86645       -0.06658
C          1.89441        2.07969       -0.06456
C          1.28860        0.84863        0.02401
H         -4.29317        0.58847       -0.07688
H         -0.59973        2.52860        0.07805
H         -1.61597       -2.60660       -0.02637
H         -0.20183       -3.53987        0.56999
H          1.52550       -3.66397        0.53179
H          3.94465        2.70937       -0.14957
H          1.41773        3.05286       -0.14307
