30
Coordinates from ORCA-job ./opt_b97-3c_parallel
N          5.63971        1.18114        0.97830
C          4.64412        0.72658        0.64911
C          3.37990        0.15540        0.25126
C          3.36413       -1.21849        0.08135
C          2.32035       -1.99804       -0.37914
C          0.98144       -1.66458       -0.56321
N          0.29721       -2.65114       -1.22107
C          0.32781       -0.44301       -0.28654
C          0.97190        0.82202       -0.21560
C          2.34120        1.05052        0.01431
C          0.16139        1.98228       -0.34577
N          0.66154        3.25005       -0.46384
N         -1.18329        1.97441       -0.39541
C         -1.78323        0.78510       -0.27387
C         -3.22244        0.70356       -0.14089
C         -4.26152        1.56153        0.33283
N         -5.27110        2.09035        0.41840
C         -3.26740       -0.70182        0.20612
C         -2.04226       -1.34413        0.15834
C         -1.86630       -2.66844        0.70570
N         -1.74578       -3.71774        1.14052
C         -1.08628       -0.40097       -0.18699
H          4.30360       -1.74480        0.24321
H          2.59794       -3.02832       -0.59830
H          0.73003       -3.55764       -1.36121
H         -0.69561       -2.54926       -1.39795
H          2.65553        2.08525        0.11967
H          1.63257        3.35796       -0.73361
H          0.01869        3.98364       -0.74185
H         -4.15193       -1.23069        0.55578
