32
Coordinates from ORCA-job ./opt_b97-3c_parallel
N         -4.75547        2.24423       -0.68499
C         -3.78051        1.68769       -0.46955
C         -2.56331        0.95881       -0.23128
C         -2.61620       -0.40226        0.22216
N         -3.46415       -1.07002        0.47408
C         -1.42210       -1.06672        0.35261
C         -0.93757       -2.32770        0.16835
N         -1.15622       -3.40819        0.15228
N          0.37257       -2.56446        0.04258
C          1.24613       -1.53994        0.04279
N          2.45323       -1.98083        0.02759
C          3.47595       -1.44463       -0.52365
C          3.94169       -0.16200       -0.57380
C          3.12911        0.92238       -0.03027
N          3.92816        1.69750       -0.00358
C          1.74863        0.87043        0.25559
C          1.40421        2.13275        0.86017
N          1.08508        2.42143        1.91873
C          0.79649       -0.15738        0.12243
C         -0.60141        0.00738        0.11000
C         -1.21931        1.22885       -0.33504
N         -1.03544        2.24174       -0.74269
H         -4.22207       -0.50582        0.08982
H         -3.89499       -1.69410        1.15524
H         -2.15370       -3.21802        0.05483
H         -1.08024       -4.31893        0.60406
H          4.24211       -2.11655       -0.94107
H          4.95927       -0.00433       -0.95002
H          4.94070        1.81987       -0.02020
H          3.55599        2.55177        0.41161
H         -1.80665        2.73581       -1.19281
H         -0.39553        2.96544       -0.41697
