25
Coordinates from ORCA-job ./opt_b97-3c_parallel
N         -5.37243       -1.21271        0.12431
C         -4.33907       -0.72837        0.05996
C         -3.03341       -0.15059        0.01030
C         -3.13429        1.21337       -0.05428
N         -2.30307        2.25527       -0.10127
C         -0.93115        2.11690       -0.07880
C         -0.09845        0.94359       -0.02879
C         -0.49164       -0.45513       -0.00095
C         -1.85057       -0.95527        0.02334
C          0.54447       -1.48815        0.01755
N          0.36842       -2.58409        0.02359
C          1.88823       -1.12482        0.03032
C          3.06167       -1.96506        0.05323
N          3.69471       -2.89205       -0.16699
C          2.22631        0.21215        0.02514
N          3.46324        0.79159        0.05082
C          3.11861        2.13511        0.03180
N          1.84818        2.44894       -0.01223
C          1.30529        1.26977       -0.00939
H         -3.95305        1.94846       -0.08253
H         -0.83000        3.21213       -0.11466
H         -2.02193       -2.02640        0.06776
H          1.09805       -3.29176       -0.05021
H         -0.30640       -2.77914       -0.71324
H          3.93654        2.87099        0.05907
