31
Coordinates from ORCA-job ./opt_b97-3c_parallel
N         -3.39859       -2.50898        0.76442
C         -3.19197       -1.47839        0.31696
C         -2.87234       -0.20411       -0.24975
C         -3.80043        0.74506        0.07849
C         -3.20383        1.90735        0.31774
C         -1.76056        1.65506        0.12067
C         -0.73536        2.57870        0.30297
C          0.60283        2.20824        0.12945
N          1.54262        3.18869        0.30821
C          0.95945        0.88957       -0.22719
C          2.36820        0.62748       -0.48774
N          3.42838        0.93414       -0.54118
N          3.09367       -0.48101       -0.06359
C          2.38587       -1.65392        0.12463
N          2.97832       -2.48139        0.54823
N          1.21728       -1.99471       -0.31620
C          0.06469       -1.43988       -0.50852
N         -0.26287       -2.48815       -0.61484
C         -0.16104       -0.02249       -0.40452
C         -1.54541        0.34379       -0.25346
H         -4.87368        0.57723        0.14255
H         -3.78146        2.78314        0.60512
H         -0.98559        3.59966        0.58717
H          1.24133        4.09549        0.65352
H          2.51781        2.93921        0.43170
H          2.91471        1.76904       -0.82194
H          4.36709        1.03106       -0.92707
H          2.54510       -3.30813        0.95747
H          3.79750       -2.27167        1.11659
H         -1.02030       -1.91508       -0.98493
H         -0.40462       -3.42087       -1.00173
