31
Coordinates from ORCA-job ./opt_b97-3c_parallel
N          5.53109        0.58857       -0.79227
C          4.75897       -0.00580       -0.19192
C          3.38635        0.00218        0.20959
C          2.66496       -1.23335        0.29106
C          1.27965       -1.16248        0.31088
C          0.45055       -2.27651        0.24368
N          0.93060       -3.55391        0.28044
N         -0.87955       -2.16094        0.07861
C         -1.50357       -0.95360        0.02895
C         -2.86906       -1.08056       -0.23902
C         -3.85833       -0.11621       -0.39938
N         -5.09806       -0.56918       -0.75677
C         -3.74200        1.25189       -0.21330
C         -2.62749        1.97358        0.17812
C         -1.31653        1.54545        0.38140
C         -0.44399        2.61608        0.81383
N          0.22924        3.46887        1.17189
C         -0.78487        0.24775        0.23517
C          0.66249        0.12897        0.32871
C          2.03106        0.45237       -0.00079
N          2.16367        1.60535       -0.72727
H          3.18063       -2.19005        0.24990
H          1.87711       -3.70238        0.61124
H          0.26315       -4.30500        0.41726
H         -3.21485       -2.10427       -0.38614
H         -5.87109        0.08063       -0.84937
H         -5.27046       -1.56473       -0.84520
H         -4.64523        1.84153       -0.36032
H         -2.81727        3.03717        0.31812
H          3.09354        1.99698       -0.83454
H          1.38350        2.25411       -0.73738
