28
Coordinates from ORCA-job ./opt_b97-3c_parallel
N          5.73397        2.04047        0.43479
C          4.79707        1.40085        0.29813
C          3.62294        0.58457        0.14173
C          3.61897       -0.79829       -0.01386
C          2.29073       -1.17884       -0.09872
C          1.72326       -2.43139       -0.24937
N          0.37721       -2.56719       -0.27560
C         -0.43827       -1.47596       -0.16177
C         -1.81231       -1.77411       -0.13502
C         -2.92590       -0.93657        0.04399
N         -4.13534       -1.57846        0.13472
C         -2.89629        0.46283        0.15417
C         -4.09062        1.23799        0.41632
N         -5.04114        1.84047        0.62031
C         -1.69340        1.23781        0.02737
N         -1.61728        2.47379       -0.55387
N         -0.64122        0.94370        0.04130
C          0.10003       -0.17117       -0.03705
C          1.49065       -0.06709        0.00056
C          2.30932        1.04511        0.14622
H          4.48721       -1.45203       -0.04895
H          2.31772       -3.33903       -0.33405
H         -2.04828       -2.83412       -0.22377
H         -4.14129       -2.58248        0.27743
H         -4.93903       -1.05019        0.45863
H         -2.46398        3.02294       -0.65851
H         -0.73294        2.96885       -0.55901
H          1.98656        2.07749        0.25840
