26
Coordinates from ORCA-job ./opt_b97-3c_parallel
N         -5.11056       -1.16910        0.12478
C         -4.08464       -0.66959        0.10151
C         -2.77790       -0.08467        0.06389
C         -2.73259        1.29096        0.06376
C         -1.37615        1.43008        0.04463
C         -0.60282        2.63616        0.04661
C          0.78528        2.59010        0.04540
C          1.53273        1.34973        0.03381
N          2.86851        1.56345        0.05208
C          3.65871        0.42985        0.02789
N          3.79199       -0.94428       -0.01712
C          2.56079       -1.56733       -0.04716
N          2.60197       -2.66686       -0.10575
N          1.38723       -1.02249       -0.01432
C          0.81981        0.14540        0.00999
C         -0.62641        0.22859        0.02423
C         -1.55276       -0.85125        0.03720
N         -1.43515       -1.95259        0.03823
H         -3.36222        1.87345       -0.60607
H         -1.11312        3.59728        0.04787
H          1.33556        3.52999        0.04345
H          4.61928        0.96780        0.05915
H          3.46944       -3.20161       -0.09780
H          1.86961       -3.30869       -0.40673
H         -1.16709       -2.69796        0.67874
H         -2.39842       -2.15170       -0.23299
