29
Coordinates from ORCA-job ./opt_b97-3c_parallel
N         -0.49150       -3.58501       -0.31381
C         -0.68045       -2.46213       -0.20857
C         -0.95167       -1.04485       -0.09588
C         -2.37759       -0.78269       -0.17430
N         -3.37577       -1.71625       -0.31925
N         -3.09384        0.05126       -0.07150
C         -2.78781        1.10914       -0.00913
N         -3.88237        1.67023        0.58580
C         -1.59643        1.85875       -0.29611
C         -0.29083        1.35556       -0.27592
N          0.66210        2.31681       -0.42577
C          1.96804        1.99190       -0.37289
C          2.35194        0.68496       -0.13481
C          3.62280        0.16668        0.03533
N          4.73845        0.95161       -0.03990
C          3.57658       -1.25028        0.32318
C          2.14172       -1.45718        0.29428
C          1.41919       -0.30512       -0.00017
C          0.03557       -0.02620       -0.10772
H         -4.34562       -1.44727       -0.19504
H         -3.14718       -2.70418       -0.29781
H         -3.92444        2.67092        0.74403
H         -4.71749        1.11738        0.74310
H         -1.77759        2.92228       -0.44148
H          2.68404        2.80410       -0.48073
H          4.65426        1.88538       -0.42524
H          5.64728        0.50271       -0.06889
H          4.28385       -1.80658        0.92989
H          1.70859       -2.40587        0.58396
