26
Coordinates from ORCA-job ./opt_b97-3c_parallel
N          3.69858       -2.34912        0.29852
C          2.83772       -1.60626        0.17905
C          1.78182       -0.64169        0.04067
C          2.13729        0.75237       -0.05328
N          2.95457        1.17883       -0.66621
C          1.10743        1.73879        0.06288
C          1.11996        3.05879        0.38501
C         -0.15028        3.42739        0.49551
C         -0.99288        2.42526        0.25803
C         -0.24295        1.31657       -0.02996
C         -0.62206       -0.02209       -0.18906
C         -1.97482       -0.36207       -0.40402
C         -2.96175        0.53696       -0.92226
N         -3.77237        1.22081       -1.34951
C         -2.55942       -1.66545       -0.12591
N         -1.96347       -2.72887        0.44755
C         -0.64464       -2.90690        0.51569
N          0.11338       -2.25116       -0.28806
C          0.38190       -0.99801       -0.13787
H          3.74695        0.53886       -0.69229
H          3.33417        2.11355       -0.52849
H          1.99533        3.68595        0.53596
H         -0.46651        4.43186        0.76676
H         -2.06888        2.50766        0.36156
H         -3.61002       -1.98696       -0.18664
H         -0.45479       -3.86590        1.02132
