27
Coordinates from ORCA-job ./opt_b97-3c_parallel
N          4.77357        0.27101       -0.17738
C          3.64980        0.45932       -0.08283
C          2.25855        0.09513       -0.02253
C          1.61100       -1.20675        0.04403
N          2.33632       -2.04589        0.06149
C          0.24843       -1.43735        0.08624
C         -0.29519       -2.68906       -0.03514
N         -1.43085       -3.39500       -0.08258
C         -2.57022       -2.70351        0.03660
N         -2.73748       -1.42866        0.21775
C         -2.02395       -0.34459        0.19031
N         -3.02673        0.11402        0.24078
C         -0.57900       -0.33576        0.11079
C         -0.02028        0.98702        0.05086
C         -0.62682        2.20585        0.04292
C         -1.65229        3.20039        0.05948
N         -2.73053        3.53402       -0.12249
C          0.47160        3.13741       -0.03548
N          1.67092        2.50961       -0.07102
C          1.37361        1.15968       -0.01959
H          2.17640       -2.87299       -0.51011
H          3.34534       -1.91206        0.11051
H          0.03856       -3.73190       -0.14686
H         -3.50459       -3.28138       -0.02835
H         -3.99393        0.14135        0.55817
H         -2.47790        0.62691        0.92705
H          0.90267        4.14919       -0.08604
