28
Coordinates from ORCA-job ./opt_b97-3c_parallel
N         -3.02818        1.67644        0.35761
C         -2.61657        0.68778        0.09724
C         -3.36713       -0.52727        0.18200
C         -2.80113       -1.74054       -0.15561
N         -1.55045       -2.21559       -0.34976
C         -0.40247       -1.42954       -0.25134
N          0.71245       -2.25881       -0.14618
C          1.95339       -1.66800       -0.01261
N          2.83215       -2.33403        0.05690
C          2.08593       -0.24514        0.01984
C          3.08403        0.86696        0.04160
C          2.50491        2.05447        0.02994
C          1.19302        1.98325       -0.00902
N          0.41726        3.07805        0.01106
C          0.94942        0.64360       -0.04108
C         -0.34563        0.02267       -0.25590
C         -1.43224        0.77916       -0.55701
H         -2.75440        2.63880        0.15881
H         -4.03156        1.70779        0.53992
H         -4.40960       -0.46354        0.48604
H         -3.56938       -2.52915       -0.12985
H          2.99744       -3.34137        0.07388
H          3.75937       -1.90677        0.08040
H          4.16846        0.78369        0.07037
H          3.06086        2.99050        0.05842
H         -0.47630        3.07201        0.50053
H          0.83547        3.99823        0.15411
H         -1.39865        1.35397       -1.48345
