30
Coordinates from ORCA-job ./opt_b97-3c_parallel
N          5.75597        0.46619       -1.14368
C          4.64614        0.51565       -0.87416
C          3.25357        0.59070       -0.52205
C          2.55023        1.74441       -0.25913
C          1.15899        1.45499        0.00347
C         -0.05057        2.05006        0.44929
N          0.07067        3.35672        0.84328
C         -1.25546        1.35202        0.37136
C         -2.42477        2.05175        0.87628
N         -3.33421        2.60701        1.29045
C         -1.28048       -0.03448        0.03562
C         -2.50083       -0.59758       -0.42998
C         -3.46311        0.22803       -1.13593
N         -4.22063        0.86160       -1.71141
C         -2.89032       -1.93346       -0.47179
C         -2.23850       -3.03769        0.03018
C         -0.94835       -3.10383        0.50879
C          0.04879       -2.12996        0.48713
C          1.25347       -2.64945        1.10392
N          2.19124       -3.07860        1.59725
C         -0.05103       -0.75351        0.14082
C          1.14095        0.00705       -0.02744
C          2.39507       -0.47176       -0.41148
H          3.04697        2.71131       -0.29397
H          0.93959        3.84499        0.65746
H         -0.77244        3.90908        0.96290
H         -3.87801       -2.14979       -0.87989
H         -2.79927       -3.96994        0.02818
H         -0.67038       -4.09123        0.87937
H          2.67275       -1.49564       -0.64471
