28
Coordinates from ORCA-job ./opt_b97-3c_parallel
N         -0.47830        4.18539       -0.07056
C         -0.46377        3.04140       -0.05109
C         -0.46560        1.59327       -0.02866
C         -1.69121        0.90446       -0.02517
N         -2.89812        1.55565       -0.05329
C         -1.65309       -0.48747        0.00434
C         -2.72849       -1.42356        0.04442
N         -4.08434       -1.51510        0.15996
N         -1.80202       -2.07308        0.01949
C         -0.78110       -2.56428        0.02906
C         -0.48767       -1.16878        0.01109
C          0.75185       -0.52908        0.00412
N          1.89340       -1.25731        0.01177
C          2.99174       -1.13470        0.00872
N          3.67622       -2.30625       -0.12124
C          3.64906        0.14630        0.06470
C          3.03818        1.45025        0.01836
N          1.93828        1.55282        0.00115
C          0.75873        0.88488       -0.00871
H         -3.72658        1.01779       -0.28374
H         -2.90541        2.54880       -0.26105
H         -4.50378       -2.41457        0.36518
H         -4.61354       -0.68471        0.40152
H         -0.09993       -3.39952       -0.07855
H          4.68786       -2.31332       -0.05203
H          3.18292       -3.19012       -0.07548
H          4.71110        0.37808        0.06557
H          3.48503        2.41630        0.22054
