29
Coordinates from ORCA-job ./opt_b97-3c_parallel
N          1.74918       -3.66826       -0.33337
C          1.05273       -2.76734       -0.23027
C          0.13856       -1.65405       -0.11881
C         -1.20085       -2.05256       -0.12790
C         -2.22656       -1.12468       -0.08564
C         -3.55871       -1.49761       -0.06726
C         -4.51927       -0.44047        0.01711
C         -3.33774        0.37499        0.13633
N         -3.67057        1.63074        0.56033
C         -1.91125        0.26522       -0.05302
C         -0.53757        0.67784       -0.17934
C         -0.38851        2.05470       -0.38214
C          0.85183        2.72947       -0.63775
N          1.90002        2.54508       -0.35018
C          2.27678        1.55050       -0.05957
N          3.45263        2.08482        0.41161
C          1.86998        0.15540       -0.01830
C          3.02681       -0.66557        0.28260
N          3.94920       -1.29065        0.54110
C          0.51493       -0.27750       -0.10596
H         -1.45100       -3.11217       -0.16419
H         -3.84363       -2.54738       -0.08839
H         -5.36681       -0.41395        0.69536
H         -4.61049        1.79588        0.90238
H         -2.93135        2.24769        0.87843
H         -1.25010        2.71688       -0.42713
H          1.01198        3.68604       -1.12211
H          4.21203        1.46137        0.66395
H          3.68841        3.04816        0.19918
