34
Coordinates from ORCA-job ./opt_b97-3c_parallel
N          4.45357        2.95987        1.18119
C          3.67381        2.21609        0.79951
C          2.67003        1.27818        0.32930
C          1.48658        1.89606       -0.06741
C          0.20939        1.35503       -0.27767
C         -0.84486        2.29326       -0.46320
N         -0.63051        3.62744       -0.69454
C         -2.18057        1.90873       -0.41699
C         -2.46347        0.58738       -0.14654
C         -3.69561        0.00918        0.11082
C         -4.96818        0.68012        0.17062
N         -5.97228        1.22248        0.22946
C         -3.46663       -1.31546        0.43629
C         -2.09947       -1.55007        0.35066
C         -1.50369       -2.76597        0.84883
N         -1.04554       -3.73519        1.24461
C         -1.46529       -0.36143       -0.05184
C         -0.09948       -0.02658       -0.23981
C          0.81979       -1.04072       -0.58382
N          0.30210       -2.06537       -1.34748
C          2.20829       -1.08721       -0.33226
C          2.88915       -2.33727       -0.65459
N          3.42722       -3.31042       -0.92073
C          2.99897       -0.08421        0.25911
N          4.26463       -0.43668        0.68751
H          1.55564        2.98062       -0.05078
H          0.28950        3.91619       -1.00846
H         -1.41865        4.19257       -0.99179
H         -2.98046        2.64040       -0.51847
H         -4.21739       -2.02683        0.77407
H          0.86301       -2.89852       -1.49540
H         -0.70255       -2.14226       -1.45595
H          4.92583        0.29296        0.93309
H          4.62541       -1.35801        0.46182
