32
Coordinates from ORCA-job ./opt_b97-3c_parallel
N         -5.49840       -0.25219       -0.19404
C         -4.36689       -0.12673       -0.09179
C         -2.93543        0.02128        0.01346
C         -2.16103       -1.13052        0.20107
C         -0.75048       -1.19678        0.22455
C         -0.12027       -2.45918        0.23663
N         -0.81068       -3.63389        0.33762
N          1.21558       -2.62621        0.13475
C          1.97663       -1.52275        0.01694
C          3.39101       -1.66435       -0.13966
C          3.38707       -0.22505       -0.25425
N          4.70604        0.02575       -0.52542
C          2.41126        0.83176       -0.10149
C          2.50627        2.12737       -0.70336
N          2.79708        3.16387       -0.31749
C          1.46380       -0.23929        0.04502
C          0.08192       -0.05856        0.19393
C         -0.45257        1.27190        0.36490
N         -0.09041        2.08097        1.40859
N         -1.37517        1.79524        0.05588
C         -2.35485        1.33197       -0.16643
N         -3.02577        2.42564       -0.64334
H         -2.72088       -2.06050        0.26351
H         -1.77031       -3.60388        0.66164
H         -0.28033       -4.47874        0.52241
H          3.86096       -2.36921       -0.81991
H          5.30481       -0.74455       -0.80178
H          4.96931        0.96122       -0.81732
H         -0.46947        3.01997        1.46023
H          0.77940        1.90166        1.89812
H         -4.02888        2.37273       -0.78300
H         -2.61024        3.34534       -0.54459
