33
Coordinates from ORCA-job ./opt_b97-3c_parallel
N         -3.92772        3.03693        0.00621
C         -2.96616        2.41808        0.00810
C         -1.75432        1.62535        0.02476
C         -0.48935        2.23467        0.09472
N         -0.41943        3.60666        0.13525
C          0.68620        1.45040        0.10856
C          1.94519        2.09492        0.08125
C          3.18724        1.47692       -0.08779
C          3.36258        0.06308       -0.28983
N          4.47945       -0.47391       -0.86203
N          2.75510       -0.81637       -0.00832
C          1.70683       -0.80712        0.34085
N          1.83187       -1.61168        1.44221
C          0.55811        0.04359        0.12907
C         -0.70591       -0.54687        0.00296
C         -0.90824       -1.96934       -0.08204
C         -0.30796       -3.10597       -0.71158
N          0.03343       -4.15164       -0.40290
C         -2.31960       -1.68480       -0.19964
N         -3.29686       -2.63145       -0.34634
C         -3.09144       -0.46830       -0.15678
C         -1.84429        0.23425       -0.04946
H          0.45582        4.04195        0.40202
H         -1.27466        4.12905        0.29561
H          1.99008        3.17812        0.13751
H          4.09024        2.08206       -0.11797
H          4.62962       -1.47576       -0.81558
H          5.27416        0.11839       -1.07315
H          2.64181       -2.21624        1.52367
H          1.00698       -1.85542        1.97837
H         -4.23012       -2.33559       -0.61045
H         -3.01634       -3.57890       -0.57836
H         -3.90231       -0.19202       -0.82557
