27
Coordinates from ORCA-job ./opt_b97-3c_parallel
N         -4.52131        1.62136        0.00877
C         -3.66136        0.86986       -0.03218
C         -2.55805       -0.04163       -0.09031
C         -2.63233       -1.40364        0.00940
N         -3.73321       -2.16972       -0.05463
C         -1.40113       -1.89412        0.16164
C         -0.42475       -0.77453        0.15379
C         -1.18933        0.35619       -0.02024
C         -0.65376        1.63788       -0.13336
C          0.72890        1.83613       -0.04796
N          1.19037        3.12219       -0.13500
C          1.61267        0.75531        0.14497
C          3.00449        1.08427        0.38390
N          4.10727        0.34430        0.19259
C          3.99724       -0.93871       -0.15997
N          3.02319       -1.76376       -0.34026
C          1.75235       -1.73807       -0.10540
C          0.99346       -0.55795        0.20644
H         -3.71896       -3.12289        0.30241
H         -4.64825       -1.76781        0.14149
H         -1.22123       -2.96300        0.24822
H         -1.31671        2.48944       -0.27594
H          0.54357        3.85094       -0.41467
H          2.17765        3.27214       -0.31412
H          3.59914        1.97308        0.64270
H          4.97704       -1.42015       -0.30127
H          1.45561       -2.78988       -0.23245
