25
Coordinates from ORCA-job ./opt_b97-3c_parallel
N          5.01380        1.30025        0.09465
C          3.97141        0.83550        0.03015
C          2.67160        0.23314       -0.01289
C          2.29054       -1.07894       -0.04150
N          2.95154       -1.96730       -0.03863
C          0.92483       -1.10427       -0.04686
C          0.13874       -2.30030       -0.01382
N         -1.19798       -2.16931        0.03268
C         -1.88951       -1.00890        0.02654
N         -3.27020       -1.19357        0.08661
C         -4.12881       -0.12261        0.06930
N         -4.30973        1.22672        0.00311
C         -3.06080        1.76723       -0.07379
N         -1.70523        1.55669       -0.10199
C         -1.16329        0.27250       -0.04331
C          0.27828        0.17476       -0.04499
C          1.46441        1.02000       -0.00602
N          1.29254        2.11034        0.02826
H          3.85810       -1.49889       -0.05822
H          3.15952       -2.96525       -0.02095
H          0.48639       -3.34454        0.00161
H         -5.20926       -0.32696        0.13019
H         -3.12257        2.86518       -0.14165
H          2.10452        2.72301        0.10193
H          0.47151        2.71336        0.03387
