30
Coordinates from ORCA-job ./opt_b97-3c_parallel
N          4.15740       -2.09767       -0.45869
C          3.20465       -1.47669       -0.33562
C          2.00801       -0.67812       -0.18282
C          0.72340       -1.24805       -0.17337
N          0.59480       -2.60643       -0.33121
C         -0.42659       -0.43661       -0.00665
C         -1.72943       -1.06198        0.10732
N         -2.01674       -2.03320        1.03125
N         -2.78113       -0.79541       -0.11168
C         -3.22818        0.20730       -0.24486
N         -4.48595       -0.01917       -0.72496
C         -2.74623        1.52899        0.05300
C         -1.39632        1.86015        0.18124
C         -0.30664        0.97205        0.09336
C          0.98960        1.49965        0.09601
C          1.42339        2.81843        0.20144
C          2.81142        2.81429        0.14342
C          3.23911        1.50217       -0.00270
C          2.10661        0.69978       -0.03352
H          1.40889       -3.14298       -0.61161
H         -0.32343       -2.98376       -0.54110
H         -2.94089       -2.44974        1.04411
H         -1.25430       -2.56440        1.43733
H         -5.14274        0.74942       -0.79676
H         -4.85423       -0.96356       -0.73459
H         -3.50036        2.30841        0.13282
H         -1.19638        2.91632        0.32734
H          0.80638        3.70592        0.31010
H          3.45305        3.69018        0.19931
H          4.27203        1.17115       -0.08225
