28
Coordinates from ORCA-job ./opt_b97-3c_parallel
N         -2.50866        3.94246        0.10635
C         -1.78894        3.05407        0.09839
C         -0.87621        1.93694        0.07192
C          0.49119        2.17404        0.03372
C          1.42954        1.13112        0.00798
C          2.75366        1.58818       -0.00743
C          3.95000        0.88555       -0.01835
C          4.14435       -0.48335       -0.03630
C          3.17758       -1.47219       -0.05564
C          1.79396       -1.34887       -0.04212
C          0.97305       -0.20953        0.00226
C         -0.42738       -0.42947        0.04299
C         -1.06548       -1.72352        0.05728
C         -1.11932       -3.12465        0.35173
N         -0.87179       -4.22069        0.14072
C         -2.38323       -1.12441        0.03531
N         -3.64006       -1.66442       -0.04967
C         -2.71617        0.27553        0.13502
C         -1.32597        0.62319        0.08388
H          0.82698        3.20976        0.02809
H          2.89627        2.66713       -0.00028
H          4.85437        1.48984       -0.01419
H          5.17788       -0.82210       -0.04267
H          3.55518       -2.49210       -0.08110
H          1.31584       -2.31837       -0.06984
H         -4.44081       -1.08731        0.18284
H         -3.73835       -2.67072        0.03800
H         -3.51871        0.78576       -0.39215
