26
Coordinates from ORCA-job ./opt_b97-3c_parallel
N          3.78520       -1.06958        0.74707
C          3.07585       -0.29689        0.28462
C          2.08245        0.16901        0.10879
C          2.68205        1.40348        0.08752
N          2.39004        2.70724       -0.03842
C          1.09977        3.03586       -0.17984
N          0.08161        2.23838       -0.19229
C         -0.29249        0.98598       -0.19190
C          0.60842       -0.09476       -0.07879
C          0.09483       -1.41127       -0.14967
C          0.96509       -2.56696       -0.11994
N          1.63472       -3.49319       -0.10846
C         -1.28505       -1.62180       -0.30114
N         -1.83838       -2.86807       -0.44285
C         -2.16370       -0.48709       -0.34379
C         -3.49319       -0.46913        0.15113
C         -3.82419        0.82407        0.39705
C         -2.75867        1.57892        0.13687
C         -1.71919        0.80213       -0.30572
H          3.47368        2.17119        0.10093
H          0.81554        4.09254       -0.29785
H         -2.84594       -2.97004       -0.39454
H         -1.25997       -3.68528       -0.27639
H         -4.05433       -1.34156        0.47019
H         -4.78631        1.17866        0.75912
H         -2.72277        2.66016        0.24796
