33
Coordinates from ORCA-job ./opt_b97-3c_parallel
N         -5.49423        0.52530        0.09181
C         -4.35985        0.38419        0.07064
C         -2.91461        0.20315        0.02735
C         -2.42850       -1.10206        0.21124
N         -3.33522       -2.10533        0.46503
C         -1.11363       -1.56476        0.13403
C          0.11865       -0.90039       -0.01989
C          1.29726       -1.70803       -0.09774
C          1.24099       -3.15743       -0.17453
N          1.20418       -4.29907       -0.24539
C          2.57939       -1.13309       -0.13497
N          3.72418       -1.88499       -0.23414
C          2.67118        0.24532       -0.05077
C          3.84006        1.06745       -0.01446
N          2.98879        1.80791        0.02669
C          2.01885        2.37355        0.13619
N          1.62956        3.61589        0.54903
C          1.57041        1.02316       -0.01593
C          0.26321        0.50585       -0.06153
C         -0.75468        1.46015       -0.19158
C         -2.14084        1.34994       -0.20456
N         -2.77957        2.54631       -0.43790
H         -4.32787       -1.90575        0.39913
H         -3.02999       -3.07181        0.44215
H         -1.07001       -2.64166        0.25833
H          3.65878       -2.89820       -0.23059
H          4.63240       -1.44687       -0.13659
H          4.88214        0.77067       -0.05654
H          2.32785        4.29534        0.82377
H          0.69417        3.72671        0.92704
H         -0.41988        2.47972       -0.35054
H         -2.24222        3.31492       -0.82410
H         -3.77690        2.53013       -0.62586
