24
Coordinates from ORCA-job ./opt_b97-3c_parallel
N          5.47683       -0.06438        0.01065
C          4.33531       -0.11575        0.02343
C          2.89641       -0.16738        0.02575
C          2.32150       -1.48206       -0.08224
N          1.30944       -1.91737       -0.01437
C          0.35591       -1.37151        0.08592
C         -0.12820       -0.01525        0.02152
C          0.74394        1.09365        0.04174
C          0.18394        2.38203        0.01809
N         -1.14458        2.63534       -0.05108
C         -1.95674        1.56168       -0.09119
C         -3.39445        1.68732       -0.18304
C         -3.71932        0.27117       -0.17775
C         -2.60563       -0.55164       -0.10420
C         -2.65581       -1.99141       -0.09310
N         -2.70528       -3.13303       -0.07427
C         -1.49716        0.26340       -0.05250
C          2.14483        1.01062        0.07184
H          2.80357       -2.40600       -0.38268
H          0.02193       -2.17703        0.73154
H          0.81564        3.26868        0.03858
H         -3.99469        2.49241        0.22807
H         -4.71755       -0.15719       -0.23013
H          2.70197        1.94506        0.11080
