28
Coordinates from ORCA-job ./opt_b97-3c_parallel
N         -1.73916       -3.90548       -0.06893
C         -1.09634       -2.96132       -0.05449
C         -0.34133       -1.74483       -0.03194
C          1.08772       -1.90160       -0.07312
C          1.86000       -0.70622       -0.00410
C          3.21623       -0.55539       -0.02824
N          4.02284       -1.30455       -0.09175
C          3.40854        0.80247        0.03665
C          2.26726        1.50056        0.08678
N          2.27007        2.84081        0.18344
C          1.27061        0.56436        0.04962
C         -0.10838        0.73777        0.03963
N         -0.55149        2.02352        0.06194
C         -1.91335        2.25607        0.04951
N         -3.21563        1.79822        0.02712
C         -3.26215        0.41918        0.01111
N         -4.31372        0.08988       -0.00394
N         -2.22721       -0.35776        0.01598
C         -0.92763       -0.40969        0.00791
H          1.63044       -2.84346       -0.01649
H          5.01738       -1.08196       -0.10096
H          3.95414       -2.31939       -0.14284
H          4.39403        1.26644        0.06056
H          3.09560        3.37668       -0.08016
H          1.44459        3.38174       -0.06579
H         -1.83634        3.35469        0.06497
H         -5.13291        0.69674        0.00720
H         -4.66612       -0.86670       -0.00797
