32
Coordinates from ORCA-job ./opt_b97-3c_parallel
N         -4.89801        1.73090       -0.22547
C         -3.93853        1.11795       -0.12650
C         -2.71401        0.34455       -0.02503
C         -2.91679       -1.08868       -0.03805
N         -4.13144       -1.71857       -0.14934
N         -2.36948       -2.02907        0.13988
C         -1.26804       -1.98382        0.12145
C         -0.09405       -1.15373        0.02765
C          1.15053       -1.81864       -0.06124
N          1.20019       -3.18835       -0.13845
C          2.34124       -1.08526       -0.08282
C          3.64309       -1.70509       -0.17954
N          4.67707       -2.18533       -0.26758
C          2.22872        0.29165       -0.00891
C          3.22376        1.29326       -0.01241
C          2.41455        2.48330        0.05418
N          2.97910        3.72353        0.07418
N          1.30917        2.28911        0.08329
C          1.04208        0.96060        0.05116
C         -0.19310        0.26569        0.05415
C         -1.44386        0.95996        0.05592
N         -1.46794        2.33347        0.11065
H         -4.21885       -2.69837        0.09669
H         -4.97884       -1.16127       -0.17786
H         -1.39120       -2.91100        0.67320
H          2.08718       -3.62377       -0.36788
H          0.35404       -3.68880       -0.38911
H          4.30609        1.21862       -0.04927
H          3.97282        3.83361       -0.09263
H          2.38691        4.54389        0.00722
H         -0.60068        2.85179        0.02215
H         -2.34264        2.82293       -0.04646
