33
Coordinates from ORCA-job ./opt_b97-3c_parallel
N          5.69389        2.40438        0.69306
C          4.60345        2.20678        0.41116
C          3.53125        1.29692        0.14489
C          2.11202        1.61184        0.09797
C          1.33075        0.47361       -0.01725
C          2.16125       -0.60042       -0.06737
C          1.61626       -1.87039       -0.20805
N          2.36340       -3.00242       -0.35346
N          0.27775       -2.03472       -0.23205
C         -0.59155       -0.97794       -0.13435
C         -1.98201       -1.29133       -0.06369
C         -2.32049       -2.70971       -0.11948
N         -2.59725       -3.81875       -0.14953
C         -3.08361       -0.40879        0.12732
N         -4.33493       -0.95910        0.32231
C         -3.02989        0.99637        0.14928
C         -4.19856        1.81499        0.41088
N         -5.12822        2.45081        0.60551
C         -1.84965        1.77089       -0.10636
N         -1.82893        2.98449       -0.73871
N         -0.81139        1.44408       -0.05621
C         -0.06099        0.33626       -0.06563
C          3.46962       -0.15190        0.04816
N          4.53741       -1.00135        0.14605
H          1.65750        2.59712        0.15799
H          3.32886       -2.89479       -0.64357
H          1.88260       -3.84560       -0.64846
H         -4.40488       -1.95293        0.51625
H         -5.08786       -0.35884        0.64261
H         -2.69338        3.50977       -0.81749
H         -0.96095        3.50536       -0.78970
H          5.42020       -0.61352        0.46086
H          4.34616       -1.96793        0.38875
