25
Coordinates from ORCA-job ./opt_b97-3c_parallel
N          2.82901        1.73323        0.29326
C          2.10349        0.58644        0.10712
C          2.90470       -0.56087        0.06028
C          2.43025       -1.90235       -0.14091
N          1.49351       -2.46803       -0.01175
C          0.54623       -1.92692        0.14794
C         -0.06230       -0.62383        0.05712
C          0.67870        0.58889        0.02215
C         -0.08895        1.79231       -0.08284
N          0.44172        3.04139       -0.24431
N         -1.44285        1.83496       -0.11023
C         -2.05514        0.64706       -0.03717
C         -3.43049        0.35892       -0.03964
C         -3.38341       -1.08358        0.04318
N         -2.36233       -1.56683        0.07825
C         -1.45459       -0.56349        0.03319
H          3.80430        1.64184        0.55480
H          2.33437        2.55125        0.63310
H          3.98714       -0.50185        0.15246
H          3.00476       -2.78622       -0.39470
H          0.06154       -2.89751        0.13964
H         -0.18904        3.78555       -0.52036
H          1.40221        3.10477       -0.56296
H         -4.29843        1.00907       -0.07201
H         -4.19731       -1.79738        0.08318
