30
Coordinates from ORCA-job ./opt_b97-3c_parallel
N         -1.35376        4.16105       -0.30414
C         -1.29720        3.02282       -0.21358
C         -1.21040        1.57559       -0.10791
C          0.10253        1.12099       -0.03512
C          0.64989       -0.16443       -0.02303
C         -0.08747       -1.37808       -0.01952
C          0.66328       -2.57329       -0.17947
N          1.99792       -2.66170       -0.30975
C          2.67227       -1.51342       -0.23418
C          4.11186       -1.51127       -0.33730
C          4.30957       -0.10547       -0.07582
C          3.13019        0.60966        0.05354
C          3.15517        2.01489        0.38056
N          3.19134        3.12692        0.63776
C          2.06702       -0.28446       -0.06220
C         -1.49039       -1.53732        0.14210
N         -1.91939       -2.82582        0.40247
C         -2.51961       -0.56358        0.08293
C         -3.89155       -1.06096        0.18893
N         -4.96070       -1.46000        0.26608
C         -2.39783        0.83008       -0.09400
N         -3.56672        1.55850       -0.23046
H          0.80587        1.93272       -0.07909
H          0.20046       -3.55384       -0.26091
H          4.79516       -2.32377       -0.11240
H          5.27262        0.38899        0.03150
H         -2.88099       -2.95797        0.69896
H         -1.23931       -3.49657        0.74227
H         -3.50890        2.53004       -0.51830
H         -4.43712        1.06383       -0.39754
