30
Coordinates from ORCA-job ./opt_b97-3c_parallel
N          5.28011       -0.23484        0.62634
C          4.21702        0.13851        0.43415
C          2.86977        0.59680        0.18230
C          2.87743        1.90624       -0.41608
N          2.17681        2.75874       -0.37738
C          1.16091        2.69141        0.04630
C          0.12570        1.68922        0.01513
C         -1.17768        2.16756       -0.12071
C         -2.25855        1.29726       -0.13479
C         -3.59392        1.82988       -0.25315
N         -4.65163        2.25521       -0.33171
C         -2.01864       -0.07218       -0.05013
C         -3.07515       -1.04208       -0.10433
C         -2.10000       -2.09816       -0.02252
N         -2.88822       -3.21699       -0.03416
C         -0.65974       -2.00336        0.00590
C         -0.08985       -2.75396       -1.07426
N          0.50845       -3.72094       -1.18681
C         -0.72638       -0.56535        0.08300
C          0.39141        0.30611        0.16578
C          1.71125       -0.16922        0.41290
N          1.91334       -1.40955        0.96601
H          3.58208        2.31552       -1.13196
H          1.06220        3.77088        0.00075
H         -1.35235        3.23897       -0.20387
H         -4.00291       -0.97649        0.45833
H         -3.86060       -3.12006       -0.30523
H         -2.44033       -4.11072       -0.20922
H          2.84161       -1.64409        1.30222
H          1.12514       -1.89305        1.38164
