28
Coordinates from ORCA-job ./opt_b97-3c_parallel
N          1.30616        3.11491        0.93999
C          1.31674        2.02882        0.58879
C          1.40946        0.65795        0.16597
C          2.78574        0.48007       -0.00139
N          3.81870        0.90600       -0.01825
N          3.53534       -0.60350       -0.26318
C          2.80118       -1.76299       -0.30061
N          1.64970       -2.48939       -0.21242
C          0.48378       -1.77818        0.00690
N         -0.56294       -2.69415        0.04411
C         -1.84475       -2.21982        0.24923
C         -2.12760       -0.82587        0.40618
C         -3.14378        0.19174        0.26012
N         -4.13549       -0.27101        0.40697
C         -2.93385        1.44685       -0.24699
C         -1.56875        1.36642       -0.26817
N         -1.29735        2.33545       -0.72865
C         -1.06782        0.11769        0.21419
C          0.31681       -0.32641        0.11593
H          4.82440        0.95946       -0.21075
H          3.58146        1.85743        0.27978
H          3.42933       -2.64477       -0.50386
H         -2.80918       -2.74460        0.32889
H         -4.73731       -1.01578        0.75625
H         -4.76036        0.49354        0.15122
H         -3.53346        1.79895       -1.09277
H         -1.93526        2.76236       -1.40221
H         -0.78997        3.11364       -0.30611
