31
Coordinates from ORCA-job ./opt_b97-3c_parallel
N          4.52969        0.50828        0.04269
C          3.46680        0.10163       -0.06939
C          2.12564       -0.43805       -0.17810
C          2.28638       -1.87389       -0.06016
N          2.98244       -2.52177        0.93022
N          1.74205       -2.75364       -0.44195
C          0.67318       -2.72874       -0.71932
C         -0.41033       -1.89056       -0.27601
C         -1.58485       -2.72729       -0.36324
N         -2.50058       -3.40652       -0.44968
C         -0.34374       -0.48742       -0.09931
C          0.87813        0.25162       -0.19293
C          0.80064        1.67956       -0.27110
C          1.92843        2.52769       -0.60616
N          2.79464        3.21991       -0.88547
C         -0.42591        2.34678       -0.09759
N         -0.54718        3.71302       -0.16624
C         -1.55461        1.58859        0.16412
C         -2.88516        2.04335        0.41147
N         -2.96174        0.91752        0.44603
C         -2.84968       -0.20410        0.45299
N         -4.04547       -0.79309        0.74154
C         -1.52311        0.23839        0.15172
H          3.69556       -2.01091        1.43947
H          3.09255       -3.52843        0.87085
H          0.66905       -3.78503       -0.97048
H          0.23386        4.24875       -0.53153
H         -1.47489        4.11325       -0.25156
H         -3.21122        2.94035        0.92363
H         -4.11968       -1.80441        0.78061
H         -4.88436       -0.23466        0.84752
