29
Coordinates from ORCA-job ./opt_b97-3c_parallel
N          5.35179        2.17244       -0.02264
C          4.36509        1.59926       -0.01892
C          3.16287        0.82537       -0.01399
C          1.88024        1.46127       -0.01980
N          0.90467        0.95627       -0.01757
C          0.28410        0.04627       -0.00980
C          0.89815       -1.27684        0.00257
N          2.28180       -1.53678        0.00464
C          3.22920       -0.56200       -0.00360
N          4.02954       -1.33222        0.00231
N          0.16322       -2.46444        0.01395
C         -1.22184       -2.40060        0.01301
N         -1.70175       -3.39782        0.02390
C         -1.92242       -1.15031       -0.00150
C         -3.26509       -0.61088       -0.01041
C         -3.27086        0.82183       -0.02449
C         -4.52744        1.50960       -0.03489
N         -5.54606        2.02682       -0.04390
C         -1.95329        1.20201       -0.02480
N         -1.74116        2.28806       -0.03523
C         -1.16889        0.07347       -0.01194
H          1.86114        2.56353       -0.02777
H          4.83664       -0.70275       -0.00246
H          4.44135       -2.26770        0.00548
H         -2.72288       -3.44829        0.02423
H         -1.39644       -4.37311        0.03677
H         -4.18847       -1.18312       -0.00761
H         -0.94748        2.92731       -0.04020
H         -2.57206        2.88237       -0.04229
