37
Coordinates from ORCA-job ./opt_b97-3c_parallel
N          5.15803        1.67556        0.89135
C          4.21722        1.08419        0.62288
C          3.01894        0.35244        0.27056
C          3.27093       -0.85994       -0.47461
N          4.05662       -0.92507       -1.59234
N          2.80512       -1.85317       -0.32872
C          1.82693       -2.05691        0.14586
N          2.11943       -3.03553        1.05702
C          0.56978       -1.33407        0.09743
C         -0.61733       -2.06254       -0.10104
N         -0.56993       -3.42655       -0.26455
C         -1.85538       -1.40932       -0.11553
C         -3.07719       -2.16931       -0.28459
N         -4.03516       -2.78099       -0.40561
C         -1.89278       -0.01716        0.00640
C         -3.11965        0.73875       -0.05598
C         -4.52018        0.62594        0.22686
N         -5.38688        0.65562       -0.51951
C         -2.33669        1.95224       -0.00610
N         -3.04250        3.12715       -0.06359
C         -0.90595        2.13776        0.05390
C         -0.29477        2.90337       -0.99706
N          0.14996        3.95610       -1.04652
C         -0.72138        0.71136        0.17002
C          0.53841        0.07129        0.28010
C          1.72102        0.80382        0.58491
N          1.63350        1.98307        1.28523
H          4.68208       -0.15401       -1.80016
H          4.29332       -1.83413       -1.97368
H          2.98538       -3.55381        0.95431
H          1.35834       -3.49408        1.54578
H         -1.41382       -3.92587       -0.52671
H          0.32786       -3.87665       -0.40966
H         -2.53300        3.97790       -0.27991
H         -4.01511        3.08176       -0.35120
H          0.76086        2.21740        1.74511
H          2.48631        2.39626        1.64935
