28
Coordinates from ORCA-job ./opt_b97-3c_parallel
N         -3.66765        2.58354        0.01460
C         -2.63952        2.17900       -0.28089
C         -1.43855        1.39889       -0.13738
C         -0.04687        1.79474       -0.05655
N          0.05939        2.89739       -0.11626
C          1.01868        0.93042        0.06540
C          2.30573        1.40033        0.08748
N          3.59087        1.03720        0.05229
C          3.85658       -0.27345        0.03224
N          3.01829       -1.26046        0.12099
C          1.74087       -1.47434        0.15186
N          2.01760       -2.54223        0.19490
C          0.74778       -0.42193        0.09473
C         -0.60271       -0.93257        0.03873
C         -1.04681       -2.22489        0.04457
C         -2.39988       -1.98226       -0.06961
N         -3.28273       -2.64327       -0.13809
N         -2.81255       -0.65833       -0.14878
C         -1.63063        0.02899       -0.07767
H         -0.57388        3.65929        0.12445
H          0.88260        3.32894       -0.53468
H          2.83394        2.36557        0.12689
H          4.95357       -0.30829       -0.05326
H          1.59690       -2.47096        1.11928
H          2.81820       -3.16732        0.28942
H         -0.56737       -2.98535       -0.56900
H         -4.26658       -2.37657       -0.17727
H         -3.25977       -3.65295       -0.28245
