33
Coordinates from ORCA-job ./opt_b97-3c_parallel
N         -5.57251       -1.31931       -0.26090
C         -4.49136       -1.27121        0.10830
C         -3.15181       -0.76910        0.11452
C         -2.58346        0.54567       -0.04083
N         -3.40454        1.61510       -0.27538
C         -1.21857        1.00187        0.02110
C         -0.23673        2.03916        0.07033
N         -0.74418        3.30895        0.16278
C          1.12884        1.74722        0.02077
C          2.04285        2.87316        0.04109
N          2.75477        3.76729        0.06502
C          1.57837        0.40302       -0.02515
C          2.97784        0.16338       -0.09166
C          3.69993       -1.04252       -0.12469
N          5.06149       -0.94195       -0.19830
C          3.18317       -2.33863       -0.08833
C          1.80128       -2.69718       -0.00859
N          1.03807       -1.91638        0.00685
C          0.62290       -0.64197        0.00970
C         -0.76130       -0.35465        0.04910
C         -1.80983       -1.28010        0.10838
N         -1.69167       -2.64318        0.17697
H         -2.99103        2.48595       -0.59067
H         -4.37916        1.44040       -0.49806
H         -0.10595        4.06798        0.37766
H         -1.71673        3.41946        0.42832
H          3.63291        1.02795       -0.12908
H          5.49506       -0.03531       -0.06113
H          5.62464       -1.77061       -0.04225
H          3.84057       -3.20507       -0.11693
H          1.36782       -3.67677        0.15091
H         -2.51634       -3.21585        0.03384
H         -0.78088       -3.05830        0.01259
