33
Coordinates from ORCA-job ./opt_b97-3c_parallel
N          5.76095       -1.74037        0.03247
C          4.68690       -1.34857        0.01809
C          3.33030       -0.83667        0.00639
C          3.24369        0.54441        0.07204
C          2.13658        1.39252        0.05844
C          2.57749        2.77392        0.13821
N          2.94158        3.85528        0.20318
C          0.75109        1.07730       -0.00539
C         -0.13120        2.18541       -0.06466
C         -1.50855        2.06935       -0.09225
N         -2.29966        3.17775       -0.19358
C         -2.10304        0.78515        0.00692
C         -3.29429       -0.01814        0.06318
N         -4.43627        0.71194        0.23798
C         -3.42487       -1.44502       -0.05041
C         -4.36946       -2.51485        0.01362
N         -5.46953       -2.78038        0.17422
C         -1.99316       -1.53306       -0.06119
C         -1.24142       -0.35581       -0.03352
C          0.18073       -0.23117       -0.02807
C          0.90249       -1.44102       -0.05863
C          2.26444       -1.73378       -0.06074
N          2.55224       -3.07648       -0.12949
H          4.21341        1.04379        0.13132
H          0.22547        3.20945       -0.10924
H         -3.27956        3.04683       -0.42010
H         -1.86847        4.05792       -0.45372
H         -5.30035        0.22170        0.44402
H         -4.35268        1.67919        0.53113
H         -1.61636       -2.54878       -0.08821
H          0.32466       -2.35026       -0.09864
H          1.80663       -3.75410       -0.01574
H          3.51046       -3.38426        0.00336
