23
Coordinates from ORCA-job ./opt_b97-3c_parallel
N          2.74697        1.70559       -0.13542
C          2.01371        0.86889       -0.10021
N          3.09208        0.16339       -0.15622
C          2.88282       -1.11174       -0.12510
C          1.96584       -2.12626       -0.07211
C          0.55035       -1.84469       -0.02361
C         -0.04128       -0.57877       -0.00987
C          0.63803        0.71759       -0.03542
C         -0.14663        1.93549        0.00847
N         -1.48725        1.87976        0.06981
C         -2.13506        0.70970        0.08488
N         -3.47786        0.49524        0.15386
C         -3.55013       -0.89033        0.14755
C         -2.37009       -1.59789        0.06446
C         -1.49352       -0.54800        0.04114
H          3.13578        2.10369       -0.99406
H          3.36314        2.03797        0.61120
H          3.86864       -1.60407       -0.15441
H          2.29270       -3.16333       -0.06868
H         -0.07586       -2.73139        0.01289
H         -0.30526        3.02542        0.02307
H         -4.57883       -1.28202        0.19696
H         -2.28176       -2.42433       -0.63821
