31
Coordinates from ORCA-job ./opt_b97-3c_parallel
N         -4.31657       -1.78235        0.01222
C         -3.33666       -1.26266        0.00850
C         -1.98055       -1.78354        0.02614
C         -0.80278       -1.05771        0.01784
C          0.31280       -2.08432        0.06705
C          1.66510       -1.72612        0.04389
N          2.45928       -2.49092        0.07942
C          1.96022       -0.37388       -0.03473
C          3.19502        0.36823       -0.05465
N          4.28163        0.16144       -0.13329
N          2.95441        1.73548       -0.00612
C          1.57453        1.92026        0.03302
N          1.62388        3.03126        0.07632
C          0.99217        0.66722       -0.00584
C         -0.41144        0.27075        0.00302
N         -1.23200        1.34363       -0.01392
C         -2.57584        1.00059       -0.02423
N         -3.08592        1.98341       -0.05588
N         -3.62799        0.10102       -0.02122
H         -5.31228       -1.54253        0.02167
H         -4.31664       -2.80688        0.02436
H         -1.95818       -2.87117        0.04211
H          0.08886       -3.15221        0.11630
H          3.13234       -2.79381        0.78667
H          2.19815       -3.34601       -0.41735
H          4.46268       -0.80997       -0.39760
H          5.21213        0.57318       -0.02217
H          0.86576        3.67182        0.31874
H          2.43812        3.64906        0.00680
H         -4.09502        2.08177        0.07970
H         -2.78130        2.92765       -0.29780
