30
Coordinates from ORCA-job ./opt_b97-3c_parallel
N         -5.51831        0.35281       -0.12347
C         -4.40929        0.07649       -0.10232
C         -3.01321       -0.28916       -0.06821
C         -2.68838       -1.64678       -0.06103
C         -1.41346       -2.22532       -0.03049
C         -0.14144       -1.61939        0.00122
C          0.93328       -2.51790        0.02409
C          2.25051       -2.08586        0.06330
C          2.53317       -0.68485        0.09067
C          3.52583        0.35866        0.08769
N          4.78229       -0.17547        0.03409
C          3.27900        1.77595        0.12954
C          1.86331        1.57062        0.05642
N          1.06664        2.68039       -0.01011
C          1.43617        0.24138        0.04895
C          0.10237       -0.22761        0.00953
N         -0.92842        0.63290       -0.01204
C         -2.01596        0.74506       -0.03707
N         -2.27707        2.08220        0.06708
H         -3.52227       -2.34657       -0.08134
H         -1.42800       -3.31302       -0.03132
H          0.75048       -3.59013        0.01133
H          3.06316       -2.80761        0.07616
H          4.89531       -1.17252        0.18042
H          5.57877        0.42764        0.20814
H          3.84936        2.52904       -0.40456
H          1.49759        3.57599       -0.20941
H          0.09642        2.54913       -0.27594
H         -1.52610        2.72192        0.29945
H         -3.23017        2.39315        0.22127
