27
Coordinates from ORCA-job ./opt_b97-3c_parallel
N         -2.75358        1.70046        0.48347
C         -2.13439        0.52686        0.13535
C         -3.07514       -0.50414        0.07958
C         -2.90990       -1.85767       -0.14124
C         -1.72570       -2.55605       -0.23182
C         -0.43755       -2.06312       -0.13006
C          0.03166       -0.74549       -0.04486
C         -0.71915        0.46923       -0.03279
C          0.03536        1.68652       -0.16020
N         -0.50947        2.91559       -0.43082
C          1.43039        1.70778       -0.12560
C          2.12291        0.52453        0.00060
N          3.46019        0.35489        0.06049
C          3.63270       -0.75502        0.13718
C          2.46437       -1.60226        0.10233
C          1.42983       -0.63939        0.01580
H         -2.16315        2.45908        0.80873
H         -3.69232        1.65020        0.86180
H         -4.11732       -0.21475        0.21114
H         -3.82076       -2.44907       -0.19953
H         -1.81718       -3.63215       -0.36192
H          0.30491       -2.85280       -0.17655
H         -1.45900        2.93467       -0.78833
H          0.11358        3.65833       -0.72732
H          1.97808        2.64466       -0.21134
H          4.67653       -1.02422        0.24559
H          2.43686       -2.68083        0.21641
