30
Coordinates from ORCA-job ./opt_b97-3c_parallel
N         -5.36836        1.67489       -0.51977
C         -4.25619        1.65766       -0.25800
C         -3.07569        0.87862       -0.04918
C         -1.73457        1.43774       -0.06681
C         -0.76312        0.45361       -0.00854
C         -1.38510       -0.75336        0.05723
C         -0.61673       -1.91019        0.13830
N         -1.14933       -3.15902        0.27337
N          0.73143       -1.83696        0.10720
C          1.38251       -0.63566        0.00720
C          2.79864       -0.67056       -0.09154
C          3.46461       -1.95779       -0.07840
N          4.00625       -2.96464       -0.07443
C          3.68902        0.40463       -0.26201
C          3.40381        1.76747       -0.29745
C          2.11637        2.34430       -0.06987
N          1.94721        3.63115        0.34699
N          1.17831        1.78693       -0.06025
C          0.62944        0.56489       -0.02319
C         -2.75557       -0.53769        0.01884
N         -3.67170       -1.55214       -0.02232
H         -1.45820        2.48752       -0.12976
H         -2.11061       -3.23075        0.58722
H         -0.51990       -3.91310        0.52578
H          4.74172        0.15682       -0.38813
H          4.21015        2.48021       -0.45501
H          2.75719        4.20174        0.56312
H          1.04380        3.93479        0.69199
H         -4.62506       -1.31541       -0.27661
H         -3.34030       -2.47550       -0.27916
