27
Coordinates from ORCA-job ./opt_b97-3c_parallel
N         -3.29638        1.78223       -0.10617
C         -2.88834        0.75328       -0.00318
C         -3.82206       -0.23641        0.11435
C         -3.03193       -1.33979        0.02274
N         -1.83113       -2.00916       -0.07781
C         -0.65522       -1.26311       -0.12301
N          0.45215       -2.10810       -0.22554
C          1.71768       -1.54542       -0.26535
N          2.56020       -2.25343       -0.38396
C          1.89658       -0.12738       -0.12107
C          2.84654        0.95390        0.07119
N          3.83750        0.56874        0.36501
C          2.35661        2.22001        0.05813
C          1.05754        2.12460       -0.09216
C          0.77640        0.79535       -0.15011
C         -0.54646        0.20237       -0.10942
N         -1.58497        1.07967       -0.08821
H         -4.31480        1.89097       -0.08660
H         -2.96209        2.73500       -0.27473
H         -4.61884       -0.19043        0.85828
H         -3.71690       -2.20380        0.04632
H          2.82319       -3.23405       -0.51093
H          3.44989       -1.74604       -0.38006
H          4.46253        0.24187        1.10312
H          4.28138        1.40694       -0.01326
H          2.93243        3.14168        0.14062
H          0.35928        2.95786       -0.15445
