31
Coordinates from ORCA-job ./opt_b97-3c_parallel
N          5.55142        0.81961        0.83090
C          4.43810        0.73531        0.58622
C          3.02274        0.64523        0.27699
C          2.39824        1.88172        0.24062
C          1.07781        2.18803       -0.02131
C         -0.03394        1.35976       -0.13344
N         -1.17624        2.09318       -0.24717
C         -2.38514        1.50907       -0.24370
N         -3.45863        2.33851       -0.39147
C         -2.48677        0.14042       -0.04811
C         -3.59720       -0.66557        0.17002
N         -4.87651       -0.19597        0.27424
C         -3.22825       -2.04324        0.40133
C         -1.78814       -1.90515        0.33988
C         -1.35176       -0.62165        0.01548
C         -0.04883       -0.06147       -0.11083
C          1.08856       -0.90007       -0.27442
C          0.85034       -2.21432       -0.85516
N          0.68734       -3.24285       -1.32878
C          2.45819       -0.59747       -0.05942
N          3.36184       -1.63992       -0.16198
H          3.03002        2.75119        0.41919
H          0.87934        3.25947       -0.04792
H         -3.27988        3.28202       -0.71618
H         -4.34194        1.91651       -0.65528
H         -5.57723       -0.81206        0.67124
H         -5.00195        0.80048        0.41492
H         -3.77385       -2.76997        0.99455
H         -1.12922       -2.71010        0.64928
H          3.05670       -2.51351       -0.57873
H          4.35363       -1.42633       -0.18152
