34
Coordinates from ORCA-job ./opt_b97-3c_parallel
N          5.60411       -0.02185       -0.75346
C          4.50484       -0.15092       -0.46542
C          3.09697       -0.31370       -0.11647
C          2.65246       -1.63811        0.01879
N          3.55454       -2.66738       -0.12509
C          1.36753       -2.08335        0.29598
C          0.15068       -1.40951        0.31832
N         -0.89311       -2.28416        0.40706
C         -2.16359       -1.85985        0.30383
N         -3.14835       -2.80225        0.36890
C         -2.42344       -0.52231        0.06603
C         -3.66372        0.10644       -0.25149
N         -5.00083       -0.04810       -0.47972
N         -2.90558        0.93874       -0.32941
C         -1.99686        1.60451       -0.39735
N         -2.22367        2.87484       -0.83914
C         -1.40799        0.37160        0.03843
C         -0.05053       -0.00869        0.22149
C          0.95533        0.98357        0.34420
C          0.52211        2.29131        0.82110
N          0.21188        3.31786        1.21894
C          2.35434        0.85678        0.14581
N          3.08782        2.03202        0.17563
H          4.46990       -2.45972       -0.51191
H          3.20260       -3.61319       -0.22493
H          1.28429       -3.16671        0.40534
H         -4.10450       -2.48699        0.48863
H         -2.90606       -3.72258        0.71836
H         -5.51580        0.70594       -0.91968
H         -5.38136       -0.98393       -0.55792
H         -3.17259        3.22940       -0.87843
H         -1.46585        3.54957       -0.81692
H          4.10123        1.97929        0.18765
H          2.65049        2.87877        0.52452
