31
Coordinates from ORCA-job ./opt_b97-3c_parallel
N         -5.42640       -1.13978        0.53750
C         -4.42456       -0.67112        0.25093
C         -3.16331       -0.08444       -0.06495
C         -2.34007       -0.90379       -0.76124
C         -1.07922       -1.11324       -0.30889
C         -0.79670       -2.51320       -0.31584
N         -0.50646       -3.61725       -0.31672
C         -0.09675       -0.07108       -0.12900
C         -0.44535        1.34548       -0.23880
N         -1.68753        1.86232       -0.05470
C         -2.90057        1.30456        0.16472
N         -3.16167        2.31924        0.50676
N          0.56627        2.29439       -0.41401
C          1.89114        1.88307       -0.46337
N          2.38474        2.84689       -0.70754
C          2.27516        0.53439       -0.12350
C          3.52566       -0.06423        0.25749
N          4.55531        0.31764        0.35888
N          3.35013       -1.33901        0.63278
C          2.04132       -1.60547        0.51027
N          2.21969       -2.64313        0.86800
C          1.30271       -0.44590        0.04427
H         -2.65816       -1.30031       -1.72639
H         -4.08485        1.89209        0.59410
H         -3.27500        3.28299        0.82132
H          2.14553        3.82735       -0.53165
H          3.22320        2.90345       -1.29315
H          5.02495        1.16573        0.67806
H          5.26292       -0.41663        0.41085
H          1.65083       -3.39659        0.46667
H          2.82415       -3.12348        1.54083
