28
Coordinates from ORCA-job ./opt_b97-3c_parallel
N         -5.54594       -1.15361        0.26129
C         -4.53883       -0.62508        0.15066
C         -3.26414        0.04255        0.03161
C         -3.32064        1.42572       -0.04271
C         -2.26548        2.31333       -0.12570
C         -0.90467        2.05148       -0.11638
C         -0.20603        0.83584       -0.07097
C         -0.76288       -0.47431       -0.06698
C         -2.13837       -0.77894       -0.00443
C          0.12254       -1.59345       -0.10375
N         -0.30735       -2.89292       -0.17744
C          1.50689       -1.43995       -0.08092
C          2.02095       -0.16284       -0.03093
C          3.34532        0.24199        0.02536
C          4.50850       -0.60560        0.05942
N          5.42605       -1.28619        0.09591
C          3.35003        1.62724        0.06270
C          2.03065        2.06297        0.02318
C          1.19870        0.94146       -0.03465
H         -4.31040        1.88020       -0.03081
H         -2.54158        3.36379       -0.18210
H         -0.32178        2.96272       -0.16388
H         -2.40659       -1.82943        0.04877
H         -1.26905       -3.06871       -0.44550
H          0.37501       -3.61126       -0.39284
H          2.16899       -2.30342       -0.09633
H          4.23087        2.26225        0.12101
H          1.73328        3.10701        0.05206
