24
Coordinates from ORCA-job ./opt_b97-3c_parallel
N          5.32992        0.51601        0.00084
C          4.19577        0.37413        0.00032
C          2.76429        0.21537       -0.00037
C          1.93428        1.33688        0.00028
C          0.53400        1.36221       -0.00004
C         -0.37737        0.28791       -0.00089
C         -0.01386       -1.07831       -0.00145
C         -1.00205       -2.07697       -0.00194
C         -2.35996       -1.76329       -0.00194
C         -2.70644       -0.42317       -0.00146
C         -3.96791        0.14748       -0.00149
C         -3.78969        1.52458       -0.00088
C         -2.42508        1.79228       -0.00050
C         -1.75156        0.57329       -0.00091
N          1.26413       -1.48007       -0.00128
C          2.30498       -1.14113       -0.00134
H          2.42656        2.30703        0.00101
H          0.11976        2.36457        0.00052
H         -0.70674       -3.12408       -0.00236
H         -3.11757       -2.54298       -0.00248
H         -4.91837       -0.38062       -0.00193
H         -4.58265        2.26823       -0.00076
H         -1.98464        2.78528       -0.00002
H          2.88651       -2.05542       -0.00118
