28
Coordinates from ORCA-job ./opt_b97-3c_parallel
N         -4.61003        0.30392       -0.19968
C         -3.52446        0.10534       -0.11649
C         -2.38971        0.97283       -0.02590
C         -1.14089        0.24474        0.06658
C         -1.69822       -1.07327       -0.00369
N         -0.95981       -2.18519       -0.00216
C          0.38241       -2.11545        0.02873
C          1.07705       -0.83666        0.03267
C          2.51547       -0.97460        0.02280
N          3.06728       -1.93626        0.03765
C          3.49057        0.08720       -0.07029
C          3.29627        1.44743       -0.09168
C          2.08981        2.20873        0.02962
C          0.79122        1.74431        0.11289
N          0.13678        2.63550        0.20412
C          0.30081        0.38551        0.05536
N         -3.06558       -1.18583       -0.09819
H         -5.01780        1.22040       -0.39349
H         -5.40416       -0.33490       -0.13382
H         -2.50280        2.05272       -0.02908
H          0.66198       -3.17994        0.01665
H          4.00673       -1.95205       -0.36138
H          3.10182       -2.54877        0.85117
H          4.53820       -0.21507       -0.13034
H          4.19737        2.04992       -0.17437
H          2.28919        3.28443        0.03515
H         -0.03221        2.70486        1.20698
H          0.48449        3.55090       -0.08477
