32
Coordinates from ORCA-job ./opt_b97-3c_parallel
N         -4.84262       -2.00961        0.65592
C         -3.79911       -1.57786        0.47311
C         -2.46613       -1.03945        0.22646
C         -1.41038       -1.96067        0.29526
N         -1.68560       -3.28004        0.57398
C         -0.06330       -1.72478        0.05935
C          0.65023       -0.52732       -0.00320
C          0.13110        0.78845        0.06832
C          1.06199        1.83354        0.38300
C          0.68052        3.12878        0.90511
N          0.39075        4.14741        1.33577
C          2.44077        1.61456        0.38958
C          2.90324        0.35340        0.07812
C          4.24956       -0.11111        0.01641
N          3.61677       -1.03408       -0.14840
C          2.84422       -1.83424       -0.33833
N          2.93767       -3.10852       -0.81599
C          2.04763       -0.67284       -0.08669
C         -1.20844        1.11090       -0.28125
C         -1.39917        2.37668       -0.98079
N         -1.55504        3.35505       -1.55201
C         -2.37171        0.30702       -0.18299
N         -3.57604        0.92699       -0.46946
H         -2.61443       -3.52112        0.90499
H         -0.91973       -3.89126        0.83548
H          0.53416       -2.63183        0.06291
H          3.14000        2.41138        0.63654
H          5.16855        0.45043        0.13300
H          3.84186       -3.45521       -1.11464
H          2.11796       -3.52789       -1.24090
H         -3.56707        1.83859       -0.91605
H         -4.41104        0.35811       -0.56452
