29
Coordinates from ORCA-job ./opt_b97-3c_parallel
N         -5.28570       -0.71151       -0.25188
C         -4.23669       -0.27095       -0.13872
C         -2.90726        0.30536       -0.00682
C         -2.97489        1.67796        0.16597
C         -1.94386        2.57867        0.26944
C         -0.58657        2.35341        0.18039
C          0.15966        1.16602        0.04554
C          1.57216        1.37734       -0.05652
N          2.12498        2.63303       -0.17716
C          2.47316        0.31026       -0.06285
C          3.90782        0.47712       -0.15112
N          5.04171        0.60093       -0.23250
C          1.93980       -0.95005        0.03952
C          2.58820       -2.20497        0.10264
C          1.47709       -3.11392        0.20441
N          0.50212       -2.55624        0.19155
C          0.60781       -1.20696        0.08185
C         -0.37276       -0.16847        0.03580
C         -1.76187       -0.52744       -0.03517
N         -2.09174       -1.85524       -0.20169
H         -3.96740        2.12558        0.21476
H         -2.24174        3.61651        0.40317
H         -0.05926        3.29648        0.26797
H          3.10567        2.70239       -0.42830
H          1.52124        3.40403       -0.43767
H          3.64475       -2.45313        0.09333
H          1.47641       -4.19428        0.28518
H         -3.06219       -2.13437       -0.10773
H         -1.38404       -2.56471       -0.05925
