29
Coordinates from ORCA-job ./opt_b97-3c_parallel
N         -5.61905       -0.43718       -0.11577
C         -4.47920       -0.33892       -0.11367
C         -3.04512       -0.20861       -0.09780
C         -2.48229       -1.53726       -0.11563
N         -1.40730       -1.79247       -0.07677
C         -0.18396       -1.22020       -0.01946
C          0.92999       -2.06178        0.01947
C          2.22208       -1.55187        0.08210
N          3.30040       -2.38713        0.14659
C          2.43532       -0.13297        0.08395
C          3.25550        1.05169        0.03545
N          4.55832        0.71984       -0.21066
C          2.92686        2.44277        0.20813
C          1.54465        2.07659        0.13196
C          1.27672        0.71709        0.07353
C         -0.02101        0.18228        0.01377
N         -1.10087        1.00180       -0.00162
C         -2.20614        0.96553       -0.03550
N         -2.70099        2.23647        0.02201
H         -2.98707       -2.49561       -0.15556
H          0.78326       -3.13968        0.00797
H          3.14159       -3.36720        0.35160
H          4.19752       -1.98931        0.40231
H          5.21894        1.45614       -0.43308
H          4.76616       -0.22074       -0.52883
H          3.38064        3.28044       -0.31144
H          0.75082        2.81975        0.12765
H         -3.69924        2.38590        0.12281
H         -2.07669        3.01810        0.18179
