29
Coordinates from ORCA-job ./opt_b97-3c_parallel
N          2.91520        3.35849       -0.05179
C          2.39962        2.33980       -0.02780
C          1.81596        1.03077       -0.00103
C          2.84871        0.09034       -0.05814
N          3.95488       -0.03543       -0.12043
N          2.90823       -1.26131       -0.03511
C          1.70328       -1.93628        0.02574
N          1.80822       -3.03550        0.07833
N          0.45281       -1.63705        0.03053
C         -0.22461       -0.53830        0.04607
C          0.37841        0.78722        0.06228
C         -0.49760        1.95498        0.10491
C         -1.88256        1.82151        0.07107
C         -2.42407        0.49819        0.00960
C         -3.74243        0.15070       -0.07598
N         -4.67523        0.73510       -0.11768
C         -3.69046       -1.21981       -0.11762
C         -2.43039       -1.65871       -0.06019
C         -1.60544       -0.57785        0.01720
H          4.86554       -0.46288       -0.30625
H          4.15738        0.96758       -0.08230
H          0.99176       -3.63732        0.19852
H          2.61004       -3.66644        0.11263
H         -0.11407        2.96995        0.18129
H         -2.51614        2.70563        0.11368
H         -5.62703        0.38511       -0.22116
H         -4.74358        1.75153       -0.10617
H         -4.56180       -1.86910       -0.18974
H         -2.12993       -2.70346       -0.07888
