30
Coordinates from ORCA-job ./opt_b97-3c_parallel
N         -5.61787       -0.45548        0.10726
C         -4.47570       -0.44150        0.06129
C         -3.02740       -0.43430        0.01567
C         -2.44838       -1.69185        0.16241
C         -1.11038       -2.06306        0.16102
C          0.04412       -1.29130        0.04780
N          1.18965       -2.02172        0.08170
C          2.40220       -1.44169       -0.01274
N          3.46808       -2.29462        0.01372
C          2.55552       -0.06267       -0.12374
C          3.77826        0.58476       -0.19782
C          3.73582        2.01404       -0.25526
C          2.33462        1.81917        0.02046
N          1.77145        2.90615        0.62949
C          1.37837        0.75037       -0.14149
C          0.08445        0.10873       -0.09416
C         -0.98311        0.99934       -0.20703
C         -2.35962        0.78521       -0.17086
N         -3.10500        1.92775       -0.32756
H         -3.13848       -2.52483        0.28911
H         -0.95136       -3.13436        0.27605
H          3.28964       -3.28690       -0.09377
H          4.37829       -1.94212       -0.25836
H          4.71614        0.03527       -0.17741
H          4.39233        2.68659        0.28858
H          2.28702        3.77884        0.65995
H          0.76674        2.93201        0.76346
H         -0.69016        2.03901       -0.34573
H         -2.64644        2.76810       -0.66153
H         -4.10434        1.83839       -0.48048
