24
Coordinates from ORCA-job ./opt_b97-3c_parallel
N         -3.98888       -0.79065        0.55467
C         -3.00687       -0.25686        0.31404
C         -1.77405        0.44267        0.03220
C         -2.14704        1.83299        0.11230
N         -1.73417        2.84214       -0.05133
C         -0.65146        3.00099       -0.17555
C          0.56350        2.24041       -0.08008
C          0.65593        0.84040       -0.05391
C         -0.45099       -0.06063       -0.05232
C         -0.16910       -1.45969       -0.11881
C         -1.16209       -2.49645       -0.27910
N         -1.92588       -3.33530       -0.42192
C          1.14587       -1.93357       -0.10757
C          2.18311       -1.02006       -0.03892
C          3.58695       -1.26027       -0.02487
N          3.47557       -0.13379       -0.00812
C          3.21323        0.96737       -0.00114
C          1.94846        0.30498       -0.02615
H         -3.13679        2.27830        0.15701
H         -0.79365        3.98564       -0.60770
H          1.43986        2.88366       -0.07559
H          1.36175       -2.99905       -0.16106
H          4.11723       -2.16793        0.23771
H          3.54611        1.77292        0.64235
