30
Coordinates from ORCA-job ./opt_b97-3c_parallel
N         -4.19587       -1.59531       -0.10974
C         -2.92319       -1.09843       -0.04496
C         -1.89818       -2.01949       -0.11016
C         -0.53521       -1.79772       -0.03050
C          0.20921       -0.60865        0.00397
C         -0.28349        0.73458       -0.00781
C         -1.65685        1.07868        0.17941
N         -2.02012        2.35859        0.51630
C         -2.79312        0.26634        0.14784
C          0.68718        1.78268       -0.18340
N          0.38753        3.08998       -0.46870
C          2.05862        1.53990       -0.18438
C          2.49426        0.24650       -0.04387
C          3.79601       -0.22035       -0.00307
C          3.72119       -1.59841        0.11324
C          2.37943       -1.96030        0.13201
C          1.60744       -0.79891        0.03149
H         -4.96482       -0.94479       -0.22724
H         -4.32840       -2.54839       -0.42959
H         -2.19141       -3.06352       -0.20444
H          0.01078       -2.73145       -0.05876
H         -2.94876        2.50791        0.89406
H         -1.28543        2.98576        0.82726
H         -3.74411        0.78379        0.27938
H         -0.55982        3.29777       -0.76755
H          1.12865        3.68405       -0.82250
H          2.77712        2.34805       -0.30718
H          4.70285        0.37763       -0.05298
H          4.56627       -2.27934        0.17862
H          2.02951       -2.98403        0.22614
