32
Coordinates from ORCA-job ./opt_b97-3c_parallel
N          4.50533        2.36948        0.90801
C          3.71393        1.60970        0.58645
C          2.70108        0.64372        0.20615
C          1.42412        1.18168        0.05379
C          0.16347        0.57578       -0.11615
C         -0.93644        1.47856       -0.23852
N         -0.74328        2.81260       -0.51710
C         -2.26343        1.04260       -0.11907
C         -3.39236        1.94488       -0.20646
N         -4.28386        2.65436       -0.29072
C         -2.47113       -0.29817        0.14107
C         -3.66431       -0.94415        0.43163
C         -3.36111       -2.27421        0.66061
C         -1.99447       -2.43764        0.49210
C         -1.43174       -1.20509        0.14166
C         -0.08827       -0.82392       -0.09478
C          0.87657       -1.82594       -0.36387
N          0.46276       -3.06104       -0.78829
C          2.26665       -1.73198       -0.37047
C          3.09546       -0.67520       -0.02986
N          4.43100       -0.99291        0.02162
H          1.42675        2.25966        0.18452
H          0.13043        3.08001       -0.95720
H         -1.56017        3.37029       -0.74325
H         -4.65021       -0.49013        0.51072
H         -4.06554       -3.04772        0.95560
H         -1.47379       -3.37359        0.67369
H         -0.50702       -3.16562       -1.06764
H          1.14245       -3.66906       -1.23159
H          2.79255       -2.65470       -0.61909
H          4.70487       -1.96911        0.01250
H          5.07979       -0.31657        0.41111
