30
Coordinates from ORCA-job ./opt_b97-3c_parallel
N         -5.04198       -0.44468       -1.02719
C         -3.97157       -0.25358       -0.67345
C         -2.60798       -0.02299       -0.23731
C         -2.29397        1.35738       -0.00747
N         -3.18894        2.35010        0.28117
N         -1.31608        1.82543        0.06698
C         -0.01543        1.53772        0.13720
C          0.85138        2.64261        0.14901
C          2.23112        2.48426        0.13498
C          2.72046        1.19062        0.07915
C          4.07373        0.78347       -0.11050
N          3.48018       -0.17371       -0.16787
C          2.72474       -1.00591       -0.24752
N          3.00496       -2.24307       -0.74880
C          1.89648        0.11012        0.10137
C          0.48587        0.21328        0.19089
C         -0.33168       -0.95070        0.32293
C          0.28645       -2.14503        0.87324
N          0.74473       -3.08756        1.33411
C         -1.72386       -1.07807        0.05250
N         -2.27092       -2.34510        0.02791
H         -2.87086        3.31247        0.29797
H         -4.17691        2.18490        0.12026
H          0.44047        3.65032        0.14042
H          2.89694        3.34309        0.10619
H          4.92527        1.37938       -0.41696
H          3.96429       -2.56580       -0.78913
H          2.26709       -2.93846       -0.78624
H         -3.27886       -2.44610       -0.02574
H         -1.72755       -3.12454        0.38442
