24
Coordinates from ORCA-job ./opt_b97-3c_parallel
N         -4.18192       -1.52435       -0.12921
C         -3.39424       -0.74990       -0.08244
C         -3.19313        0.60225       -0.05178
C         -1.92045        0.94951       -0.01509
N         -1.25260        1.85628        0.01202
C         -0.17074        2.16992        0.01603
C          0.78582        1.06660        0.00925
C          2.16006        1.52373        0.01706
N          3.32193        0.77175        0.00813
C          3.13282       -0.58779       -0.00253
N          4.14756       -1.02120       -0.00826
N          2.35260       -1.71916       -0.00959
C          0.98505       -1.49860       -0.00721
C          0.26468       -0.24260       -0.00538
C         -1.18397       -0.20042       -0.01260
N         -2.09024       -1.24408       -0.06572
H         -5.15712       -1.22623       -0.18851
H         -4.21320       -2.54477       -0.12572
H         -4.00546        1.32690       -0.06326
H         -0.07032        3.26741        0.01333
H          2.59342        2.53614        0.02394
H          4.45684       -1.99346       -0.00897
H          5.00205       -0.46335       -0.01249
H          0.68423       -2.55779       -0.00946
