28
Coordinates from ORCA-job ./opt_b97-3c_parallel
N          4.99489       -1.71276       -0.26795
C          3.97733       -1.20367       -0.15623
C          2.71884       -0.53251        0.00474
C          1.84478       -1.58817       -0.00587
C          0.89403       -0.61517        0.00566
C          1.37341        0.73016        0.01561
C          0.56513        1.83013        0.06364
N          0.82179        3.14247        0.19941
C         -0.88990        1.56959        0.02462
C         -1.44157        0.23984       -0.02081
C         -2.89225        0.12471       -0.07208
C         -3.81568        1.21733       -0.11765
N         -4.53011        2.10823       -0.17111
C         -3.66670       -1.02514       -0.08592
N         -3.42617       -2.34795       -0.05259
C         -2.09524       -2.67408       -0.01762
N         -0.93984       -2.11236       -0.02017
C         -0.53196       -0.88835       -0.00346
C          2.73170        0.83972       -0.01915
N          3.65189        1.80357       -0.19900
H          1.86134       -2.34975        0.77255
H          1.72304        3.44447        0.56584
H          0.10905        3.76804        0.57013
H         -1.49719        2.47058        0.09027
H         -4.71704       -1.35221       -0.11641
H         -2.00067       -3.76980        0.01811
H          4.58475        1.55960       -0.52692
H          3.38366        2.68054       -0.64153
