34
Coordinates from ORCA-job ./opt_b97-3c_parallel
N          5.55688       -0.43109        0.54403
C          4.44278       -0.24133        0.36890
C          3.03000       -0.01977        0.13472
C          2.72272        1.31040       -0.33990
N          3.47579        2.00115       -1.25093
N          1.87585        1.99075       -0.13449
C          0.89750        1.67254        0.26855
N          0.68675        2.63776        1.21736
C          0.08775        0.48310        0.12673
C          0.65519       -0.81848        0.14832
C         -0.26415       -1.89675        0.01570
N          0.08512       -3.21043       -0.12405
N         -1.59878       -1.74262       -0.09629
C         -2.10009       -0.49603       -0.09128
C         -3.51935       -0.31032       -0.19413
C         -4.61095       -1.22412       -0.05248
N         -5.67711       -1.42922       -0.41213
C         -3.19628        1.09721       -0.14967
N         -4.32173        1.87400       -0.20352
C         -1.99252        1.88302       -0.03499
C         -1.30204        0.62500       -0.00221
C          2.05933       -1.02674        0.31465
N          2.53755       -2.25429        0.71006
H          3.29199        2.98831       -1.39184
H          4.40627        1.66478       -1.47376
H          1.24223        3.48645        1.18890
H         -0.20850        2.68049        1.69186
H         -0.62914       -3.85536       -0.44424
H          1.04661       -3.42051       -0.36967
H         -4.22995        2.87303       -0.35069
H         -5.20621        1.43299       -0.43395
H         -1.71754        2.72613       -0.66074
H          3.50160       -2.31721        1.02042
H          1.87644       -2.91873        1.09915
