28
Coordinates from ORCA-job ./opt_b97-3c_parallel
N         -4.96155        1.14082        0.26131
C         -3.93240        1.44344       -0.13215
C         -2.52007        1.23458       -0.08116
C         -1.72275        2.44017       -0.03347
N         -0.59805        2.38654        0.01306
C         -0.32112        1.06413        0.01420
C         -1.45112        0.31208       -0.04191
C         -1.44201       -1.07465       -0.05582
C         -2.68991       -1.79996       -0.13279
N         -3.67357       -2.37724       -0.20649
C         -0.19448       -1.72121        0.00137
N         -0.16828       -3.09400       -0.03025
C          1.00777       -0.96933        0.07585
C          2.23878       -1.65822        0.17136
C          3.51425       -1.09031        0.20659
C          3.77985        0.31724        0.08419
N          5.01959        0.80382       -0.21704
N          3.19982        1.25443        0.08210
C          2.09740        1.28672        0.13491
C          0.92885        0.44515        0.06951
H         -2.03777        3.47729       -0.03057
H         -1.02508       -3.58696       -0.26056
H          0.70994       -3.55827       -0.23133
H          2.23522       -2.74185        0.23396
H          4.38586       -1.73318        0.30527
H          5.82282        0.18559       -0.21911
H          5.18051        1.80449       -0.24183
H          2.16797        2.35919       -0.01022
