24
Coordinates from ORCA-job ./opt_b97-3c_parallel
N         -3.32948       -2.66148       -0.00705
C         -2.78868       -1.65404       -0.00582
C         -2.12393       -0.36623       -0.00432
C         -3.02162        0.71680       -0.00354
C         -2.73818        2.08197       -0.00219
C         -1.43595        2.67212       -0.00185
N         -0.51277        2.08965       -0.00174
C          0.04129        0.87042       -0.00241
C         -0.70494       -0.33476       -0.00376
N         -0.04645       -1.53741       -0.00449
C          1.30312       -1.59482       -0.00390
N          1.87483       -2.83346       -0.00479
C          2.05483       -0.42753       -0.00250
C          3.46539       -0.22750       -0.00162
N          3.03078        0.82040       -0.00092
C          2.43380        1.78513       -0.00047
C          1.43561        0.76683       -0.00177
H         -4.08307        0.47376       -0.00399
H         -3.54885        2.80668       -0.00164
H         -1.16899        3.72214       -0.00276
H          1.28683       -3.65950       -0.00550
H          2.88324       -2.93253       -0.00395
H          4.25438       -0.96953        0.00105
H          2.30398        2.86057        0.00223
