25
Coordinates from ORCA-job ./opt_b97-3c_parallel
N         -4.97759        1.49765       -0.00186
C         -4.04385        0.83842       -0.00087
C         -2.87640       -0.00983       -0.00022
C         -3.12816       -1.37615       -0.00050
C         -2.21489       -2.41669       -0.00035
C         -0.82928       -2.36016       -0.00000
C          0.02779       -1.25560        0.00039
C          1.39249       -1.61068        0.00065
C          2.40313       -0.65476        0.00074
C          3.79219       -1.03339        0.00081
N          4.89207       -1.34469        0.00185
C          2.00772        0.66813        0.00028
C          2.75044        1.86577        0.00002
C          1.68783        2.84234       -0.00054
N          0.64386        2.41401       -0.00028
C          0.70620        1.06004        0.00029
C         -0.33939        0.11440        0.00042
C         -1.64142        0.63782        0.00029
H         -4.17366       -1.68114       -0.00088
H         -2.64374       -3.41632       -0.00080
H         -0.35895       -3.34163       -0.00019
H          1.68414       -2.65950        0.00064
H          3.82191        2.03842       -0.00011
H          1.75244        3.92404       -0.00122
H         -1.72011        1.72323        0.00046
