29
Coordinates from ORCA-job ./opt_b97-3c_parallel
N          3.06876       -3.66726       -0.10594
C          2.55406       -2.64657       -0.09036
C          1.89688       -1.36037       -0.05606
C          2.91749       -0.36440        0.11204
N          3.02894        0.72787        0.00781
C          2.15146        1.38562       -0.10269
N          2.92549        2.49080        0.15842
C          0.70162        1.35373       -0.12262
C          0.21163        2.62362       -0.62255
N         -0.16211        3.62750       -1.02189
C         -0.08167        0.17153       -0.06671
C          0.50524       -1.12927       -0.10250
C         -0.31983       -2.26631       -0.18138
C         -1.69951       -2.17518       -0.26086
C         -2.32175       -0.89212       -0.26820
C         -3.51278       -0.17070        0.09385
N         -4.62753       -0.95420        0.00453
C         -3.65130        1.18286        0.55622
C         -2.23049        1.33562        0.46722
C         -1.49644        0.24907        0.00214
H          3.83758       -0.42951        0.68396
H          2.51245        3.41164        0.05649
H          3.93429        2.42519        0.07333
H          0.09959       -3.26845       -0.19692
H         -2.30456       -3.07539       -0.33248
H         -4.56103       -1.84430       -0.47638
H         -5.53967       -0.51901        0.08603
H         -4.37854        1.90891        0.20686
H         -1.78591        2.22462        0.90307
