28
Coordinates from ORCA-job ./opt_b97-3c_parallel
N          5.27612       -1.16181       -0.03914
C          4.22858       -0.70469       -0.04328
C          2.90391       -0.14112       -0.06291
C          2.82721        1.25244       -0.41407
N          2.04959        2.02608       -0.26798
C          0.99395        1.88407        0.02532
N          0.95675        2.86188        0.98390
C          0.02334        0.81133       -0.04129
C         -1.34982        1.11596       -0.19034
N         -1.74712        2.41903       -0.36586
C         -2.31624        0.09262       -0.16820
C         -3.72649        0.37591       -0.32226
N         -4.83705        0.61484       -0.45020
C         -1.89094       -1.22290        0.01057
N         -2.63539       -2.35142        0.06424
C         -1.92977       -3.21961        0.19980
C         -0.52304       -2.90049        0.25900
C         -0.56313       -1.49472        0.13142
C          0.44415       -0.53189        0.08125
C          1.78436       -0.95484        0.13634
H          3.63593        1.94081       -0.63154
H          1.65346        3.59880        0.97490
H          0.08838        3.03883        1.47687
H         -2.70042        2.60248       -0.66133
H         -1.04001        3.11814       -0.56808
H         -2.42181       -4.18262        0.26872
H          0.30761       -3.58435        0.39752
H          1.98082       -2.01123        0.30043
