26
Coordinates from ORCA-job ./opt_b97-3c_parallel
N          4.15645        0.79287       -0.08993
C          3.14694        0.34708       -0.08108
N          2.94247       -1.02128       -0.15728
C          1.61861       -1.12483       -0.10285
C          0.84532       -2.26286       -0.12578
C         -0.57716       -2.07230       -0.02875
N         -1.30153       -3.22904       -0.11665
C         -1.16626       -0.81534        0.12483
C         -2.60257       -0.75227        0.32871
N         -3.47506        0.24378        0.10713
C         -3.05411        1.45009       -0.27822
N         -1.91621        2.04407       -0.46875
C         -0.86289        1.66028        0.17866
N         -0.50869        2.70660        0.15078
C         -0.33541        0.31456        0.11506
C          1.10769        0.20104       -0.00156
N          2.06651        1.07112        0.00793
H          4.41497        1.77791       -0.14132
H          5.02627        0.26502       -0.15669
H          1.29999       -3.24853       -0.19249
H         -2.27555       -3.16668       -0.39699
H         -0.81537       -4.09496       -0.32638
H         -3.25936       -1.55900        0.68807
H         -4.04606        1.92504       -0.32869
H          0.50465        2.70150        0.22912
H         -0.78212        3.68053        0.01984
