30
Coordinates from ORCA-job ./opt_b97-3c_parallel
N         -6.14896       -0.01084       -0.15929
C         -5.06747        0.31570       -0.33158
C         -3.67616        0.22803       -0.02097
C         -2.92795        1.47033        0.02066
C         -1.56693        1.24219        0.04046
C         -0.54043        2.15664        0.11639
C          0.77831        1.69307        0.12852
C          1.72003        2.75106        0.42282
N          2.43978        3.60280        0.67481
C          1.08888        0.29335        0.02744
C          2.43236       -0.19759       -0.12393
C          3.46306        0.70031       -0.62103
N          4.28573        1.37823       -1.03530
C          2.89553       -1.53761        0.04021
N          4.24173       -1.81379       -0.01977
C          2.13531       -2.68520        0.28411
C          0.71897       -2.84378        0.19468
N          0.14588       -1.92237        0.13175
C         -0.01656       -0.59963        0.06406
C         -1.32371       -0.09053        0.03329
C         -2.56939       -0.71436       -0.00122
N         -2.75993       -2.06746       -0.04317
H         -3.31279        2.48735        0.04488
H         -0.76519        3.21943        0.19521
H          4.54122       -2.78027       -0.08362
H          4.87188       -1.09608       -0.36390
H          2.60143       -3.66119        0.40448
H          0.10454       -3.64916        0.57886
H         -1.96533       -2.67656        0.11943
H         -3.69438       -2.43838        0.09075
