26
Coordinates from ORCA-job ./opt_b97-3c_parallel
N          5.16581       -0.70881       -0.00258
C          4.16858       -0.15030       -0.00277
C          2.78702        0.20990       -0.00195
C          2.31196        1.57116       -0.00066
N          1.19763        1.71418       -0.00004
C          0.56810        0.51353       -0.00056
C          1.53697       -0.44661       -0.00168
C          1.27112       -1.79502       -0.00224
C         -0.06179       -2.16575       -0.00152
C         -1.10894       -1.22066       -0.00048
C         -2.35937       -1.85178       -0.00009
C         -3.63827       -1.32531        0.00111
C         -4.01108        0.00143        0.00219
C         -3.19024        1.11331        0.00211
C         -1.79708        1.21549        0.00125
N         -1.42881        2.53596        0.00190
C         -0.81900        0.17869        0.00008
H          2.87564        2.49632       -0.00019
H          2.06863       -2.53416       -0.00289
H         -0.27606       -3.23258       -0.00172
H         -2.35987       -2.94002       -0.00060
H         -4.45185       -2.04733        0.00143
H         -5.08103        0.19687        0.00295
H         -3.74322        2.05221        0.00290
H         -0.44839        2.79296        0.00062
H         -2.13430        3.26343        0.00191
