27
Coordinates from ORCA-job ./opt_b97-3c_parallel
N         -4.91481        1.51712        0.14595
C         -3.82088        1.27955        0.38101
C         -2.76665        0.33979        0.15888
C         -2.54912       -1.07786       -0.00984
N         -3.69012       -1.81225       -0.18654
C         -1.38411       -1.92767       -0.03823
C         -0.60365       -0.72464        0.03572
C         -1.33540        0.44872        0.14019
N         -0.77009        1.67036        0.23387
C          0.57717        1.72552        0.21103
C          1.39654        0.59751        0.09714
C          2.82640        0.79343        0.03725
N          3.41687        1.85518       -0.59352
N          3.74680        0.20957        0.20981
C          3.82062       -0.89209        0.24939
C          2.92736       -1.99705        0.02909
C          1.53729       -1.88082       -0.04463
C          0.80269       -0.68065        0.02718
H         -4.56558       -1.32168       -0.34230
H         -3.61970       -2.77737       -0.48875
H         -1.21177       -2.74422       -0.73245
H          1.00140        2.72510        0.28092
H          4.42424        1.96610       -0.56595
H          2.85432        2.63803       -0.90646
H          4.84930       -0.91343        0.59030
H          3.39900       -2.97485       -0.02913
H          0.99969       -2.81906       -0.14496
