31
Coordinates from ORCA-job ./opt_b97-3c_parallel
N          4.38599        1.96782        0.00248
C          3.28013        1.16355        0.02442
C          3.50978       -0.21268        0.02688
C          2.48375       -1.20957        0.05199
N          2.73505       -2.54957        0.08839
N          1.40015       -1.08135        0.04098
C          0.45494       -0.13055        0.03603
C          0.73384        1.25780        0.04447
C          2.02985        1.80272        0.04045
N         -0.27749        2.17419        0.05025
C         -1.56673        1.76648        0.03579
N         -2.52772        2.73484        0.05346
C         -1.87737        0.41130        0.01191
C         -3.13646       -0.25588       -0.02983
N         -4.47466       -0.01223       -0.13866
N         -2.38141       -1.10209       -0.00000
C         -1.48772       -1.80087        0.01342
N         -1.16497       -3.12600        0.04570
C         -0.89151       -0.50536        0.01998
H          4.26485        2.95591       -0.18950
H          5.28787        1.55073       -0.19941
H          4.52582       -0.60171        0.01375
H          1.97304       -3.20607       -0.03547
H          3.68300       -2.88933       -0.02734
H          2.06996        2.89121        0.04301
H         -3.47742        2.46094        0.27870
H         -2.24419        3.68331        0.27203
H         -4.78775        0.92534       -0.36421
H         -5.10222       -0.78007       -0.34840
H         -0.20249       -3.39458        0.21829
H         -1.88957       -3.81549        0.20875
