31
Coordinates from ORCA-job ./opt_b97-3c_parallel
N         -5.18978        0.26160        1.04462
C         -4.12824        0.38148        0.64026
C         -2.77897        0.49611        0.15825
C         -2.58208        1.65863       -0.56965
C         -1.30973        2.30770       -0.81807
C         -0.04892        1.84943       -0.43447
N          0.63145        2.71930       -0.50795
C          0.24652        0.46188       -0.15282
C         -0.63323       -0.55991       -0.37624
C         -0.05036       -1.71731       -0.84282
N         -0.17823       -2.71239       -1.30139
N          1.21734       -2.09000       -0.58535
C          2.01716       -1.18184        0.00213
N          3.35980       -1.25597        0.23931
C          3.68484        0.05011        0.59536
N          4.76558        0.18203        0.80020
C          2.66150        0.97834        0.56075
C          1.62784        0.16387        0.19231
C         -1.75672       -0.48747        0.39814
N         -1.92162       -1.34181        1.08923
H         -3.44890        2.26697       -0.82026
H         -1.43181        3.31506       -1.22425
H          0.93485        3.12140       -1.39561
H          0.21911        3.48906        0.02153
H         -1.12848       -2.50523       -1.60731
H         -0.07542       -3.72542       -1.35886
H          5.19262        1.07294        1.06165
H          5.54318       -0.47859        0.74339
H          2.53753        1.70395        1.36260
H         -2.71753       -1.02498        1.64378
H         -1.99710       -2.35789        1.05534
