28
Coordinates from ORCA-job ./opt_b97-3c_parallel
N         -1.53006       -4.40177        0.02501
C         -1.07718       -3.35237        0.01194
C         -0.48702       -2.03667        0.00464
C          0.90270       -1.90024       -0.05697
C          1.53512       -0.63736       -0.04582
C          2.94993       -0.57475       -0.11749
N          3.68596       -1.71468       -0.30500
C          3.70456        0.59782       -0.01108
C          3.16464        1.90431        0.24939
N          2.17952        2.39898        0.23238
C          1.24356        1.84910        0.04277
C          0.71148        0.51039        0.03198
C         -0.67208        0.33260        0.07906
C         -1.73275        1.26957        0.13784
C         -1.90956        2.68913        0.17881
N         -1.94215        3.78295       -0.15154
C         -2.80611        0.29620        0.14101
N         -4.12411        0.65290        0.17267
N         -2.62283       -0.81144        0.11031
C         -1.27482       -0.89069        0.06403
H          1.48915       -2.81460       -0.09845
H          4.66864       -1.62009       -0.53741
H          3.21020       -2.55435       -0.61504
H          4.79043        0.57746       -0.07596
H          3.66516        2.76181        0.68525
H          0.82358        2.75503       -0.38060
H         -4.83691       -0.05675        0.04398
H         -4.38792        1.62438        0.04942
