31
Coordinates from ORCA-job ./opt_b97-3c_parallel
N          5.70439        1.57692        0.04512
C          4.61842        1.21655        0.06690
C          3.24922        0.76681        0.07860
C          2.28400        1.75196        0.18358
C          0.90751        1.61612        0.17232
C          0.10007        0.47483        0.08903
C          0.51576       -0.88535        0.05094
C         -0.50627       -1.87616        0.05147
C         -1.86431       -1.57081        0.06707
N         -2.80219       -2.56585        0.05623
C         -2.22308       -0.23448        0.06257
C         -3.52631        0.34812        0.05366
N         -4.84208        0.00269        0.16101
N         -2.83498        1.24033        0.00084
C         -1.98389        1.97992       -0.05327
N         -2.01192        3.31489       -0.33707
C         -1.28452        0.73583        0.05848
C          1.85914       -1.34254       -0.00524
C          2.14462       -2.76097       -0.09504
N          2.38606       -3.87605       -0.17204
C          3.04365       -0.60151       -0.01350
H          2.64337        2.77684        0.26935
H          0.40770        2.57437        0.26091
H         -0.27763       -2.93736        0.04085
H         -3.76009       -2.31764       -0.16410
H         -2.50095       -3.51370       -0.14173
H         -5.53169        0.72595        0.32980
H         -5.07918       -0.94416        0.43512
H         -2.89166        3.74001       -0.60612
H         -1.16325        3.75633       -0.67368
H          3.96406       -1.18346       -0.09040
