33
Coordinates from ORCA-job ./opt_b97-3c_parallel
N         -5.56295       -2.20577       -0.04816
C         -4.53212       -1.71259       -0.07233
C         -3.22321       -1.10515       -0.08700
C         -2.13999       -1.86627       -0.53029
C         -0.77815       -1.51185       -0.58724
C          0.03402       -2.57337       -1.13939
N          0.65643       -3.41651       -1.59590
C         -0.16589       -0.26845       -0.26485
C         -0.90029        0.91276       -0.04351
N         -2.22241        0.88042        0.18355
C         -3.10674        0.26132        0.33059
N         -3.99056        0.92442        1.13353
C         -0.26204        2.15663       -0.14692
C         -1.02706        3.38755       -0.07712
N         -1.62554        4.36081       -0.03683
C          1.10415        2.21560       -0.41703
N          1.76850        3.39323       -0.64478
C          1.94690        1.05425       -0.33635
C          3.34851        0.91282       -0.05684
C          3.56102       -0.45439        0.32681
C          4.96343       -0.65647        0.52163
N          5.79556       -1.30883        0.95828
C          2.28758       -1.12234        0.33523
N          2.39970       -2.33688        0.95126
C          1.29427       -0.21726       -0.18401
H         -2.38981       -2.87890       -0.84826
H         -3.87507        1.92136        1.28038
H         -4.91043        0.52804        1.29445
H          2.78169        3.40548       -0.62573
H          1.27017        4.27047       -0.53138
H          3.99290        1.78452        0.03571
H          1.63933       -2.99819        0.83375
H          3.33101       -2.72204        1.07127
