31
Coordinates from ORCA-job ./opt_b97-3c_parallel
N         -4.55643        1.85617       -0.48518
C         -3.53217        1.36046       -0.38141
C         -2.23865        0.75805       -0.20983
C         -0.94653        1.41499       -0.13390
N         -1.03497        2.36046        0.44151
C          0.34620        0.75006       -0.17647
C          1.47985        1.65999       -0.32580
N          1.97363        2.64139       -0.43606
N          2.83791        1.36236       -0.26229
C          3.23362        0.05479       -0.12108
N          4.33045        0.08061       -0.01193
N          2.71057       -1.12085       -0.08442
C          1.48416       -1.51198       -0.07759
N          1.98027       -2.49873       -0.05377
C          0.33594       -0.64137       -0.07619
C         -0.92687       -1.34066        0.00405
C         -1.23190       -2.67001        0.09122
C         -2.54979       -2.78454        0.06496
C         -3.12538       -1.59826       -0.03514
C         -2.12875       -0.67215       -0.07016
H         -1.12483        2.84726        1.33336
H         -1.68584        2.82104       -0.19605
H          2.43104        3.47765       -0.79765
H          0.99280        2.88628       -0.30054
H          4.85186       -0.71624        0.35069
H          4.82678        0.91509        0.29802
H          2.54301       -3.32589       -0.25130
H          1.04000       -2.70938       -0.38513
H         -0.53351       -3.49860        0.17603
H         -3.08934       -3.72852        0.12300
H         -4.19576       -1.40538       -0.06755
