32
Coordinates from ORCA-job ./opt_b97-3c_parallel
N         -0.12664       -3.24809        1.17591
C         -0.55585       -2.27100        0.76491
C         -1.13194       -1.03406        0.26481
C         -2.53626       -1.07559        0.04096
N         -3.21031       -2.26920        0.14484
C         -3.36338       -0.01130       -0.32422
C         -2.98731        1.36322       -0.40492
N         -3.87823        2.39301       -0.33364
N         -1.97557        1.73207       -0.25838
C         -0.69683        1.40277       -0.05458
C          0.18894        2.46271        0.09445
C          1.52119        2.24489        0.38996
C          2.08714        0.92928        0.34635
C          3.45374        0.56991        0.10144
N          4.61694        1.28350        0.12573
C          3.37366       -0.80262       -0.30333
C          2.01190       -1.23421       -0.44818
N          1.98367       -2.40402       -1.15364
C          1.19583       -0.17342        0.08751
C         -0.25130        0.07627        0.10417
H         -2.67010       -3.12463        0.22484
H         -4.14667       -2.33418       -0.23834
H         -4.42369       -0.16877       -0.51278
H         -3.54239        3.32522       -0.11934
H         -4.86047        2.19609       -0.17940
H         -0.17645        3.48600        0.03767
H          2.18661        3.08924        0.55186
H          4.62110        2.20308        0.55270
H          5.49816        0.79124        0.02878
H          4.24231       -1.42281       -0.50533
H          2.83948       -2.94380       -1.21594
H          1.10964       -2.91870       -1.17580
