28
Coordinates from ORCA-job ./opt_b97-3c_parallel
N          0.57345        3.99012        0.05175
C          0.20387        2.90860        0.04166
C         -0.28003        1.54159        0.02546
C         -1.66893        1.36047        0.04185
N         -2.58033        2.38230        0.07968
C         -2.27337        0.06508        0.01708
C         -3.51979       -0.67524        0.01400
C         -3.33235       -2.04360        0.00658
C         -1.98306       -2.27809        0.00338
C         -1.34639       -1.04538        0.00812
C          0.04454       -0.87182       -0.00048
N          0.81753       -1.96708       -0.00683
C          1.81195       -2.41829       -0.01183
C          3.00692       -1.63342       -0.04243
C          3.07417       -0.23954       -0.05065
N          4.32893        0.30337       -0.08340
C          1.99816        0.66410       -0.02866
C          0.59889        0.42780       -0.00138
H         -2.25508        3.33237       -0.06563
H         -3.55652        2.17439       -0.09807
H         -4.52472       -0.26063        0.01657
H         -4.11542       -2.79783        0.00201
H         -1.50989       -3.25717       -0.00501
H          1.71175       -3.49434        0.05991
H          3.91130       -2.23792       -0.06074
H          4.43572        1.30087        0.06609
H          5.12967       -0.29569        0.08457
H          2.33084        1.69716       -0.03825
