29
Coordinates from ORCA-job ./opt_b97-3c_parallel
N          5.34557       -0.88760        0.15602
C          4.24475       -0.87792       -0.15392
C          2.99240       -0.22439        0.06872
C          2.42854        1.10159        0.17641
N          3.34716        2.10450        0.32529
C          1.11157        1.68854        0.13840
C          0.64621        0.33765        0.01169
C          1.62310       -0.64419       -0.01343
N          1.34301       -1.96059       -0.11862
C          0.04185       -2.31240       -0.18861
C         -1.01642       -1.39691       -0.15752
C         -2.31494       -1.92845       -0.20097
C         -3.50089       -1.20605       -0.05971
C         -3.54750        0.20224        0.23076
N         -4.65651        0.80779        0.74721
N         -2.81505        1.02641        0.13941
C         -1.73900        0.98842       -0.11460
N         -1.71538        2.06646       -0.95898
C         -0.70598       -0.02380       -0.07913
H          3.02962        3.03309        0.58014
H          4.31004        1.85407        0.52683
H          0.73534        2.42411        0.84296
H         -0.14050       -3.38368       -0.25388
H         -2.41845       -3.00381       -0.32746
H         -4.45474       -1.72646       -0.10411
H         -5.52712        0.29366        0.81804
H         -4.68904        1.81849        0.81809
H         -2.47411        2.73864       -0.93292
H         -0.84224        2.34859       -1.38935
