27
Coordinates from ORCA-job ./opt_b97-3c_parallel
N         -3.19985        2.26868        0.47331
C         -2.76154        1.21732        0.37731
C         -2.23158       -0.11727        0.26031
C         -3.00632       -1.26510        0.32356
C         -2.23719       -2.49363        0.23774
C         -0.92624       -1.89222        0.13982
N          0.19125       -2.63595        0.05965
C          1.36678       -1.97025       -0.00978
N          2.45464       -2.79667       -0.04523
C          1.47877       -0.55943       -0.00878
C          2.76049        0.02964       -0.04694
C          3.04353        1.38626        0.12921
C          2.05781        2.37554        0.47496
N          0.97881        2.43417        0.23732
C          0.29213        1.63475       -0.09418
N         -0.22862        2.28289       -1.18233
C          0.28325        0.19626        0.03456
C         -0.91787       -0.51606        0.13889
H         -4.08523       -1.19526        0.44109
H         -2.56063       -3.41075       -0.24395
H          2.31052       -3.78105        0.15026
H          3.36797       -2.40408        0.15031
H          3.62886       -0.60713       -0.18876
H          4.07144        1.73861        0.09426
H          2.20990        3.36247        0.89576
H         -0.94862        1.82433       -1.72849
H         -0.20939        3.29650       -1.20116
