23
Coordinates from ORCA-job ./opt_b97-3c_parallel
N          0.07224       -3.56202       -0.25015
C          0.49054       -2.50040       -0.17319
C          1.05947       -1.17247       -0.07772
C          2.45438       -1.26166       -0.03128
C          3.41580       -0.27075        0.04076
C          3.22440        1.09393        0.06429
C          2.02886        1.78855        0.03168
C          0.70574        1.34085       -0.01361
N         -0.15029        2.40337       -0.01405
C         -1.48156        2.22584       -0.04172
C         -2.00137        0.94864       -0.06364
C         -3.37388        0.56332       -0.07807
N         -2.79172       -0.40193       -0.07578
C         -2.06124       -1.25948       -0.07506
C         -1.18067       -0.12911       -0.06859
C          0.23838       -0.00953       -0.05254
H          2.88058       -2.26500       -0.05295
H          4.44931       -0.60845        0.07303
H          4.12609        1.70036        0.11167
H          2.16400        2.86974        0.05493
H         -2.10639        3.11648       -0.03807
H         -4.25399        1.18430        0.03719
H         -2.23636       -1.98899        0.70727
