26
Coordinates from ORCA-job ./opt_b97-3c_parallel
N          5.43352        0.55193        0.00074
C          4.41585        0.03162        0.00093
C          3.03873       -0.34387        0.00110
C          2.51605       -1.69061        0.00035
N          1.40154       -1.85274        0.00027
C          0.83440       -0.62334        0.00118
C          1.80235        0.33401        0.00169
C          1.52894        1.68590        0.00274
C          0.19053        2.05898        0.00322
C         -0.84959        1.10739        0.00238
C         -2.12541        1.68106        0.00252
C         -3.37985        1.08795        0.00150
C         -3.71025       -0.26005       -0.00002
N         -5.04423       -0.55777       -0.00212
C         -2.83305       -1.33625        0.00008
C         -1.44273       -1.33937        0.00063
C         -0.53151       -0.27400        0.00128
H          3.05183       -2.63207       -0.00042
H          2.32466        2.42689        0.00316
H         -0.03672        3.12286        0.00386
H         -2.16686        2.76826        0.00325
H         -4.21493        1.78672        0.00130
H         -5.73291        0.18734        0.00467
H         -5.35320       -1.52337        0.00314
H         -3.28910       -2.32456       -0.00066
H         -1.02606       -2.34309        0.00013
