25
Coordinates from ORCA-job ./opt_b97-3c_parallel
N          2.92240        2.60937       -0.02994
C          2.40366        1.58954       -0.02720
C          1.85672        0.61798       -0.04738
C          2.79388       -0.39369        0.01062
N          3.82015       -0.81542        0.12759
N          2.76212       -1.73733       -0.04519
C          1.57563       -2.35620       -0.18378
N          0.37454       -1.88586       -0.25196
C         -0.28792       -0.76302       -0.17830
C          0.35223        0.49408       -0.11631
N         -0.36116        1.66517       -0.09648
C         -1.71349        1.64904       -0.16378
N         -2.35662        2.84314       -0.02000
C         -2.40469        0.45552       -0.33955
C         -3.73740        0.07940        0.02426
N         -3.25563       -0.92723        0.11236
C         -2.51797       -1.75549        0.26349
C         -1.72663       -0.76951       -0.26164
H          4.63981       -1.38171        0.34000
H          4.01410        0.11937        0.48069
H          1.64172       -3.45325       -0.23282
H         -1.80598        3.69161       -0.09194
H         -3.33976        2.89484       -0.26025
H         -4.46916        0.77926        0.45444
H         -2.42420       -2.77615        0.66340
