33
Coordinates from ORCA-job ./opt_b97-3c_parallel
N         -4.68113        1.63485        0.59446
C         -3.84394        0.87356        0.42931
C         -2.76809       -0.08894        0.20949
C         -3.18445       -1.34598       -0.26524
N         -4.50928       -1.56192       -0.56402
C         -2.41093       -2.48925       -0.37975
C         -1.05508       -2.65467       -0.17547
C         -0.05787       -1.70240        0.02475
C          1.22531       -2.27418        0.02449
C          2.37660       -1.50868        0.10235
C          3.66616       -2.15608        0.08803
N          4.68273       -2.67809        0.08212
C          2.24749       -0.12864        0.10890
C          3.37868        0.75347        0.05768
C          2.51457        1.89990       -0.03961
N          3.38830        2.95088       -0.09289
C          1.07246        1.88899       -0.06428
C          0.53568        2.64789       -1.15408
N         -0.07125        3.61187       -1.25342
C          0.99359        0.46107        0.13633
C         -0.21015       -0.30437        0.19725
C         -1.44469        0.35025        0.47176
N         -1.36263        1.54603        1.15507
H         -4.77659       -2.41812       -1.03671
H         -5.13484       -0.76472       -0.62314
H         -2.93668       -3.40243       -0.65492
H         -0.73412       -3.68893       -0.28664
H          1.34395       -3.35375       -0.05667
H          4.28419        0.57625       -0.51627
H          4.36736        2.75830       -0.27363
H          3.02729        3.85627       -0.37552
H         -2.20729        2.05225        1.40076
H         -0.46737        1.88900        1.48373
