32
Coordinates from ORCA-job ./opt_b97-3c_parallel
N         -5.44675       -1.53660        0.08787
C         -4.35873       -1.18720        0.09990
C         -2.98300       -0.75280        0.09741
C         -2.72671        0.48138       -0.47707
C         -1.54720        1.22515       -0.48052
C         -1.73043        2.47433       -1.19294
N         -1.89148        3.44847       -1.76913
C         -0.25629        0.83740       -0.03513
C          0.71919        1.81665        0.30258
C          0.37294        3.17234        0.69266
N          0.11211        4.23565        1.02188
C          2.04275        1.43756        0.54187
N          3.02160        2.28863        0.98650
C          2.54816        0.15259        0.17407
C          3.84156       -0.31284       -0.23732
C          3.59215       -1.60936       -0.79415
C          2.19328       -1.93126       -0.78012
N          1.95047       -3.11204       -1.42117
C          1.55423       -0.84330       -0.08613
C          0.15107       -0.50563        0.14985
C         -0.66933       -1.56978        0.58503
C         -0.05264       -2.76285        1.12682
N          0.41597       -3.70886        1.56702
C         -2.05901       -1.63275        0.63492
H         -3.60145        0.96980       -0.91118
H          2.81535        3.28096        1.03888
H          3.99095        2.00831        0.88644
H          4.78646        0.18246       -0.44583
H          4.37360       -2.26501       -1.16715
H          1.05537       -3.56224       -1.26313
H          2.74081       -3.71378       -1.62544
H         -2.48264       -2.54639        1.05597
