30
Coordinates from ORCA-job ./opt_b97-3c_parallel
N          4.51115       -1.16438       -0.46026
C          3.59192       -0.52299       -0.23485
C          2.44065        0.31191        0.02576
C          2.98605        1.64326       -0.06791
N          2.69668        2.69470        0.09414
C          1.65115        2.98018        0.28923
C          0.35726        2.38549        0.09930
C          0.08469        1.00950        0.05165
C          1.06311       -0.02720        0.08418
C          0.60632       -1.38129        0.14952
C          1.49480       -2.50865        0.35283
N          2.17009       -3.41483        0.52663
C         -0.76893       -1.68355        0.08858
N         -1.24913       -2.96811        0.15387
C         -1.66954       -0.63511       -0.03551
C         -3.09278       -0.67419       -0.13894
N         -4.20882       -1.44830       -0.26258
N         -2.85425        0.43104       -0.13268
C         -2.42306        1.47641       -0.13719
N         -3.16352        2.61580       -0.24510
C         -1.26246        0.64813       -0.03682
H          3.92972        1.97399       -0.49200
H          1.89808        3.89564        0.81597
H         -0.42372        3.14096        0.07909
H         -2.23917       -3.10223        0.32795
H         -0.61387       -3.70725        0.43672
H         -4.10580       -2.43971       -0.45196
H         -5.09174       -1.01260       -0.50252
H         -4.15564        2.54862       -0.44573
H         -2.70140        3.49951       -0.42516
