27
Coordinates from ORCA-job ./opt_b97-3c_parallel
N          3.15480       -2.96499        0.39652
C          2.48466       -2.16402       -0.07225
C          1.72142       -0.93214       -0.07634
C          2.36034        0.31085        0.02558
N          3.46971        0.36545        0.12343
C          1.66435        1.51941        0.00763
C          2.32181        2.72032        0.03246
N          1.39665        3.48896       -0.49397
C          0.26826        2.71321       -0.62049
C          0.24611        1.37294       -0.10295
C         -0.47496        0.13010       -0.07593
C         -1.92152        0.21105        0.12708
C         -2.53473        1.48401        0.37377
N         -3.04521        2.48316        0.58871
C         -2.83539       -0.92218        0.12592
N         -3.89136       -1.22306        0.24121
N         -2.59540       -2.18771       -0.26507
C         -1.38995       -2.69724       -0.50880
N         -0.23827       -2.22786       -0.20046
C          0.32811       -1.07095       -0.14296
H          3.86560       -0.46139        0.56853
H          4.01256        1.16089        0.45402
H          3.20281        3.37582        0.09968
H         -0.59679        3.24041       -1.05129
H         -4.54691       -1.89350        0.63723
H         -4.01774       -0.35361        0.75691
H         -1.40129       -3.73113       -0.88565
