30
Coordinates from ORCA-job ./opt_b97-3c_parallel
N         -4.35475       -2.35845        0.00030
C         -3.38892       -1.74826        0.03436
C         -2.17125       -0.97740        0.06015
C         -0.92967       -1.58926        0.07852
C          0.29881       -0.87071        0.08231
C          1.45670       -1.69261        0.13148
N          1.33395       -3.04900        0.32130
C          2.79734       -1.34453        0.00342
C          3.37710       -0.10219       -0.15253
N          4.73745       -0.07829       -0.30124
C          2.73731        1.12132       -0.12412
C          1.38403        1.43282       -0.00432
N          1.23854        2.79636        0.04046
C          0.25295        0.56507        0.04072
C         -1.05103        1.14814        0.04624
N         -1.46691        2.44067        0.01953
C         -2.58340        2.56849        0.01952
C         -3.26387        1.29962        0.03732
C         -2.18072        0.39376        0.05770
H         -0.96490       -2.67447        0.06713
H          0.45776       -3.40675        0.68337
H          2.17224       -3.57778        0.53441
H          3.50690       -2.17261        0.02146
H          5.21610       -0.94740       -0.50993
H          5.17478        0.78535       -0.60348
H          3.41374        1.97364       -0.20332
H          2.06071        3.36938        0.19190
H          0.33952        3.18008        0.30913
H         -2.99501        3.57056        0.00473
H         -4.33421        1.12029        0.04087
