27
Coordinates from ORCA-job ./opt_b97-3c_parallel
N         -3.29606        2.97161        0.05938
C         -2.86813        1.91196        0.04090
C         -2.34997        0.55869        0.02108
C         -3.36071       -0.41847        0.06256
C         -3.23155       -1.80706        0.05047
C         -2.00661       -2.54054       -0.02780
N         -1.02875       -2.05586       -0.03039
C         -0.33660       -0.90933       -0.03070
C         -0.94339        0.37010       -0.01978
N         -0.15552        1.49096       -0.04125
C          1.19290        1.40604       -0.05166
N          1.87079        2.58889       -0.10846
C          1.82012        0.16408       -0.03730
C          3.15720       -0.21196       -0.01054
N          4.18970        0.67751        0.08902
C          3.29318       -1.65639       -0.03075
C          1.90087       -2.06362       -0.03261
C          1.05886       -0.96491       -0.03810
H         -4.38799       -0.05986        0.11182
H         -4.11577       -2.43835        0.09297
H         -1.85308       -3.57157       -0.32324
H          2.83828        2.56173       -0.40924
H          1.33881        3.42450       -0.32479
H          3.97033        1.62035        0.39090
H          5.10561        0.31546        0.32985
H          4.13887       -2.23248        0.32984
H          1.49849       -3.07361       -0.02679
