27
Coordinates from ORCA-job ./opt_b97-3c_parallel
N         -4.38746        0.65636       -0.09477
C         -3.32746        0.35093       -0.04936
N         -2.97759       -0.99293       -0.04679
C         -1.65221       -0.92591       -0.01937
C         -0.75250       -2.02898        0.06562
C          0.61232       -1.76699        0.08227
N          1.13780       -2.72922        0.24150
C          1.11566       -0.40255       -0.00785
C          2.50001       -0.31087       -0.16690
N          3.46430       -0.84867       -0.28294
N          3.35743        0.71671       -0.26064
C          2.73478        1.93285       -0.15592
C          1.60269        2.65430        0.01110
C          0.41253        2.07151        0.10272
C          0.14907        0.71186        0.04962
C         -1.22381        0.42135        0.02591
N         -2.29557        1.15386        0.00893
H         -4.79755        1.57701       -0.25538
H         -5.17223        0.00434       -0.07203
H         -1.17687       -3.03276        0.15598
H          1.47282       -2.93957        1.18341
H          0.83820       -3.62757       -0.14627
H          4.44831       -0.96172       -0.53373
H          3.05412       -1.78096       -0.35903
H          3.60956        2.59988       -0.21877
H          1.67340        3.73861        0.08120
H         -0.41320        2.76473        0.25408
