29
Coordinates from ORCA-job ./opt_b97-3c_parallel
N         -3.98014        2.73295       -0.26786
C         -3.36616        1.76915       -0.21729
C         -2.60997        0.53134       -0.14948
C         -3.43368       -0.58116       -0.30662
C         -3.12190       -1.92473       -0.23835
C         -1.89920       -2.50212        0.03970
C         -0.65801       -1.89511        0.21054
C          0.37416       -2.85884        0.53652
N          1.16869       -3.63475        0.80681
C         -0.32241       -0.52684        0.11377
C         -1.20446        0.58575        0.01445
N         -0.69592        1.85238        0.08462
C          0.61705        2.11940        0.18683
C          1.56978        1.11665        0.17745
C          2.93603        1.35356        0.13731
N          3.47333        2.61261        0.13966
C          3.77110        0.20330       -0.01925
C          2.48737       -0.41708       -0.25143
N          2.78460       -1.49729       -1.03742
C          1.10550       -0.23458        0.13773
H         -4.49012       -0.38410       -0.48988
H         -3.95087       -2.61251       -0.37951
H         -1.92758       -3.58893        0.11255
H          0.88511        3.17397        0.21093
H          4.47993        2.71686        0.20612
H          2.88915        3.39892        0.40050
H          4.63476        0.16660       -0.67575
H          2.09743       -2.23955       -1.09934
H          3.75921       -1.76431       -1.13168
