31
Coordinates from ORCA-job ./opt_b97-3c_parallel
N          3.79397        2.85772       -0.38490
C          3.14253        1.92839       -0.24183
C          2.31487        0.73442       -0.07531
C          3.04753       -0.45283        0.09349
N          4.42263       -0.41490        0.13917
C          2.54901       -1.73442        0.21741
C          1.25017       -2.18632        0.13269
C          0.03820       -1.49779       -0.00932
C         -1.10813       -2.34129       -0.11391
N         -1.05038       -3.70037       -0.26642
N         -2.37992       -1.91162       -0.12194
C         -2.50890       -0.59193       -0.02865
C         -3.71735        0.13109        0.00639
C         -3.22938        1.48435        0.07663
N         -4.09283        2.53829        0.12725
N         -2.10743        1.54370        0.07880
C         -1.50682        0.32675        0.00846
C         -0.13765       -0.07849       -0.01647
C          0.90095        0.90606       -0.07405
N          0.51732        2.22625       -0.19149
H          4.93493       -1.24171        0.42523
H          4.89363        0.48370        0.17177
H          3.28463       -2.52457        0.36115
H          1.21760       -3.26659        0.22636
H         -1.90785       -4.17638       -0.52364
H         -0.18189       -4.10209       -0.59969
H         -4.74667       -0.21301       -0.00643
H         -5.08429        2.38738       -0.02062
H         -3.73436        3.48256        0.03824
H          1.21862        2.95259       -0.09523
H         -0.44724        2.48169       -0.02088
