27
Coordinates from ORCA-job ./opt_b97-3c_parallel
N         -5.21049        0.29150        0.20656
C         -4.07556        0.39305        0.11331
C         -2.63366        0.50692        0.03758
C         -2.41759        1.86838       -0.07424
C         -1.17044        2.55926       -0.11352
C          0.09863        2.04979       -0.05849
C          0.54290        0.68428       -0.03817
C         -0.23776       -0.54352       -0.03229
C          0.45438       -1.76647       -0.08914
N          0.26335       -2.85799       -0.12545
C          1.90851       -1.81060       -0.11044
C          2.55489       -0.60380       -0.06081
N          3.93093       -0.59365       -0.03841
C          4.38812        0.70298        0.02955
N          3.13695        1.02293       -0.01666
C          1.91687        0.60062       -0.02796
C         -1.69646       -0.61109        0.05866
N         -2.25414       -1.56911        0.15035
H         -3.26443        2.55374       -0.11504
H         -1.25195        3.64012       -0.17427
H          0.90097        2.78337       -0.07049
H          0.56665       -3.79485       -0.38632
H         -0.46564       -2.59021       -0.78592
H          2.49606       -2.73261       -0.14785
H          5.25420        1.37954        0.08346
H         -3.13207       -1.59137        0.66620
H         -1.61596       -2.19018        0.64449
