29
Coordinates from ORCA-job ./opt_b97-3c_parallel
N          5.39510        0.81844       -0.44364
C          4.30319        0.49548       -0.35780
C          2.95011        0.05859       -0.22689
C          2.60242       -1.34818       -0.13210
N          2.77623       -2.44073       -0.09759
N          1.51175       -1.62657       -0.01552
C          0.81638       -0.46522        0.00926
C          1.64877        0.59929       -0.11999
N          1.27129        1.88582       -0.13236
C         -0.05473        2.10246        0.00450
N         -0.39700        3.42569       -0.00879
C         -1.01432        1.07396        0.15778
C         -2.38589        1.50958        0.34150
N         -3.56276        0.86940       -0.00086
C         -3.46599       -0.49183       -0.13217
N         -4.53522       -0.63788       -0.37441
N         -2.71715       -1.64463       -0.03230
C         -1.37517       -1.47606        0.27792
N         -1.29868       -2.58359        0.29433
C         -0.56333       -0.27239        0.15097
H          3.01664       -3.41886       -0.25305
H          3.66391       -1.94969        0.00722
H         -1.36133        3.70842       -0.13927
H          0.32557        4.10803       -0.22392
H         -2.92625        2.46920        0.35718
H         -5.31448       -0.01014       -0.16648
H         -4.96006       -1.43446       -0.85071
H         -1.54384       -3.55700        0.48756
H         -0.27760       -2.59470        0.20064
