29
Coordinates from ORCA-job ./opt_b97-3c_parallel
N         -4.83743        1.74664        0.14029
C         -3.75532        1.42740       -0.04188
C         -2.49573        0.75119       -0.01458
C         -2.20522       -0.67256        0.00471
N         -3.14934       -1.66031        0.08709
C         -0.83947       -0.92400       -0.01277
C         -0.11413       -2.11425       -0.01841
N         -0.69348       -3.34905       -0.06674
N          1.23573       -2.09685       -0.00396
C          1.91170       -0.91472        0.00916
C          3.31176       -1.03311        0.04906
C          4.29523       -0.03614        0.08102
C          4.10603        1.34466        0.05895
C          2.83800        2.00422       -0.01694
N          1.86912        1.49658       -0.01723
C          1.22341        0.32081       -0.00960
C         -0.17922        0.27048       -0.01666
C         -1.14008        1.27701       -0.01851
N         -0.84096        2.61230       -0.01806
H         -4.10295       -1.38645        0.30005
H         -2.84860       -2.57657        0.39994
H         -0.09253       -4.14200       -0.26234
H         -1.65655       -3.40705       -0.37708
H          3.70048       -2.04966        0.06869
H          5.32603       -0.37875        0.12869
H          4.96257        2.01357        0.09182
H          2.63113        3.05277       -0.19352
H         -1.57990        3.28183       -0.20298
H          0.11978        2.89265       -0.18602
