28
Coordinates from ORCA-job ./opt_b97-3c_parallel
N          5.49327        1.19224        0.06030
C          4.35696        1.28581       -0.02066
C          3.07122        0.66415       -0.03348
C          1.76267        1.25092       -0.02686
C          0.65689        0.40041       -0.01211
C          1.07186       -0.96620       -0.00403
C          0.06926       -1.96879       -0.01890
C         -1.27191       -1.62425       -0.01221
C         -2.16095       -2.76639       -0.02104
N         -2.84961       -3.67827       -0.02772
C         -1.70153       -0.26664       -0.00035
C         -3.10112       -0.07376        0.01220
C         -3.87753        1.07561        0.02080
C         -3.47588        2.39389        0.01731
C         -2.17993        2.86489        0.00637
C         -0.98891        2.15288       -0.00188
C         -0.71832        0.76881       -0.00431
C          2.47248       -0.64352       -0.01555
N          3.23018       -1.78126       -0.02337
H          1.74363        2.33434       -0.03713
H          0.38964       -3.00875       -0.03189
H         -3.74445       -0.94619        0.01722
H         -4.95370        0.91560        0.03065
H         -4.26582        3.14207        0.02422
H         -2.08042        3.94828        0.00558
H         -0.15690        2.83908       -0.00597
H          4.23064       -1.70198        0.12671
H          2.78461       -2.67111        0.17151
