26
Coordinates from ORCA-job ./opt_b97-3c_parallel
N         -4.87969        1.48311       -0.28917
C         -3.78486        1.17214       -0.17866
C         -2.67080        0.28148       -0.08518
C         -2.50557       -1.14876        0.06867
N         -3.58363       -1.98127        0.16124
N         -1.48988       -1.63210        0.11949
C         -0.63489       -0.58945        0.01316
C         -1.29588        0.59871       -0.11605
N         -0.73591        1.81495       -0.25849
C          0.61681        1.81657       -0.25192
C          1.40004        0.65856       -0.11112
C          2.83586        0.80031       -0.06746
N          3.46866        1.84316        0.55280
N          3.71990        0.16209       -0.23924
C          3.75716       -0.94260       -0.24785
C          2.82486       -2.00613        0.01379
C          1.44302       -1.82775        0.10732
C          0.76591       -0.59904        0.00609
H         -3.44880       -2.98601        0.15629
H         -4.51884       -1.61823        0.01067
H          1.07891        2.79641       -0.35627
H          2.93728        2.64701        0.86706
H          4.47943        1.91517        0.52135
H          4.76888       -1.01190       -0.63057
H          3.25398       -3.00150        0.09865
H          0.85375       -2.73103        0.24640
