30
Coordinates from ORCA-job ./opt_b97-3c_parallel
N         -5.92914       -0.59359        0.55328
C         -4.84214       -0.28050        0.39044
C         -3.47892        0.12807        0.17788
C         -3.05379        1.41732       -0.05018
C         -1.61697        1.47514       -0.18844
C         -0.57705        2.44600       -0.21476
N         -0.88897        3.76997       -0.32655
C          0.74381        2.03653       -0.14001
C          1.12106        0.67930       -0.06666
C          2.51382        0.41198        0.00444
C          3.53300        1.44452        0.03225
N          4.33219        2.26168        0.07066
C          3.09375       -0.91409        0.07703
N          4.39774       -1.21057        0.39131
N          2.84769       -1.98044       -0.05227
C          1.78796       -2.25061       -0.19196
C          0.45843       -1.70884       -0.09989
C         -0.37027       -2.86081       -0.36541
N         -1.00640       -3.78644       -0.57980
C          0.11112       -0.33500       -0.06314
C         -1.24685        0.08019       -0.03223
C         -2.38292       -0.69485        0.20113
H         -3.77016        2.23471       -0.08801
H         -0.15727        4.46375       -0.21541
H         -1.85456        4.06183       -0.22361
H          1.48683        2.82866       -0.16006
H          4.75322       -2.14915        0.24357
H          5.07500       -0.45776        0.45306
H          2.11088       -3.27594       -0.35064
H         -2.44749       -1.75202        0.42484
