28
Coordinates from ORCA-job ./opt_b97-3c_parallel
N         -5.55515        0.11968       -0.04323
C         -4.45235        0.32692       -0.25736
C         -3.04032        0.53013       -0.18942
C         -2.42473        1.83820       -0.17475
N         -1.30389        1.94243       -0.11721
C         -0.83354        0.67512       -0.06417
C         -1.85275       -0.22414       -0.10831
N         -1.73889       -1.56040       -0.08194
C         -0.47483       -2.02882        0.00523
N         -0.40868       -3.39420        0.00226
C          0.67542       -1.20194        0.06748
C          1.94195       -1.81723        0.17674
C          3.18408       -1.18102        0.18397
C          3.37091        0.23195        0.00454
N          4.56731        0.77023       -0.37344
N          2.71095        1.11600        0.03208
C          1.60704        1.12238        0.08054
N          1.54218        2.45588        0.38806
C          0.48571        0.20426        0.02803
H         -2.88920        2.81630       -0.20815
H          0.48468       -3.83544       -0.18156
H         -1.24777       -3.90949       -0.24069
H          1.99250       -2.89795        0.26679
H          4.08969       -1.77230        0.29530
H          4.67673        1.77726       -0.41474
H          5.39936        0.19248       -0.40520
H          2.36465        3.03507        0.26116
H          0.63898        2.91679        0.36796
