31
Coordinates from ORCA-job ./opt_b97-3c_parallel
N          5.64028        0.33311        0.97225
C          4.56149        0.44528        0.61477
C          3.19233        0.55642        0.20039
C          2.82499        1.80251       -0.24414
C          1.49373        1.54557       -0.38381
C          0.45562        2.44756       -0.76258
C         -0.86313        2.24156       -0.23926
C         -1.72198        3.38511       -0.16719
N         -2.44881        4.26432       -0.11730
C         -1.29693        0.86536       -0.06626
N         -2.62823        0.75669        0.30064
C         -3.14123       -0.48889        0.46735
N         -4.12390       -0.14674        0.84382
N         -3.04818       -1.84724        0.38324
C         -1.86268       -2.36375       -0.10752
N         -2.30180       -3.38436       -0.15928
C         -0.60582       -1.67303       -0.37249
C          0.35090       -2.54096       -0.99178
N          1.06166       -3.27493       -1.50139
C         -0.32676       -0.22969       -0.20872
C          1.06930        0.20478       -0.21329
C          2.20952       -0.50078        0.28037
N          2.46177       -1.47722        0.73736
H          3.17206        2.70613        0.25457
H          0.85085        3.41718       -1.06360
H         -4.46468        0.81238        0.94223
H         -4.82103       -0.71839        1.32289
H         -1.48047       -3.90030       -0.48814
H         -3.05197       -4.07923       -0.16212
H          2.62608       -2.39258        0.32228
H          3.28678       -1.28003        1.30641
