23
Coordinates from ORCA-job ./opt_b97-3c_parallel
N         -3.72812       -1.19656        0.17058
C         -2.78481       -0.68756       -0.09119
N         -1.94238       -1.77265       -0.15540
C         -0.56751       -1.58671       -0.28410
C          0.19154       -0.35624       -0.11992
C         -0.24287        0.95735        0.00416
C          0.63717        2.00119        0.22243
N          2.01220        1.79850        0.32295
C          2.52471        0.51519        0.17934
N          3.76477       -0.08567        0.20045
C          3.61104       -1.45205       -0.00610
N          2.26468       -1.75530       -0.15990
C          1.61829       -0.55415       -0.05050
C         -1.61858        1.37350       -0.12236
N         -2.24948        2.27855       -0.14029
N         -2.61920        0.57706       -0.27464
H         -4.48591       -0.65218        0.58459
H         -3.99411       -2.17361        0.29855
H         -0.36966       -2.66577       -0.38103
H          0.60373        3.09350        0.36468
H          4.56500       -2.00450       -0.00209
H         -3.17376        2.65549       -0.35470
H         -1.58996        2.91612       -0.58610
