32
Coordinates from ORCA-job ./opt_b97-3c_parallel
N         -2.82967        3.57015       -0.08793
C         -2.10584        2.68498       -0.06482
C         -1.20006        1.55364       -0.04025
C          0.19585        1.73151        0.01967
N          0.65205        3.02781       -0.01284
C          1.07886        0.61101        0.02960
C          2.50087        0.75205        0.08874
N          3.11800        1.91409        0.47046
C          3.41020       -0.26679       -0.22248
C          3.04890       -1.56436       -0.72856
N          2.22876       -2.22926       -0.40103
C          1.28680       -1.88475        0.05999
N          1.17129       -2.80432        1.06727
C          0.48916       -0.67975       -0.01751
C         -0.89991       -0.82783       -0.09843
C         -1.56361       -2.09951       -0.16884
C         -2.83082       -1.41674       -0.22310
N         -3.96509       -2.17094       -0.31587
C         -3.13881       -0.01000       -0.18886
C         -1.73178        0.26858       -0.10510
H         -0.01480        3.76593       -0.21442
H          1.61752        3.18443       -0.28042
H          4.11157        1.88828        0.67116
H          2.56035        2.61173        0.95187
H          4.48468       -0.11079       -0.14913
H          3.67153       -2.28251       -1.24860
H          1.71594       -3.65822        1.02285
H          0.33856       -2.80493        1.64526
H         -1.25797       -2.93162       -0.79562
H         -3.88047       -3.16257       -0.51003
H         -4.84145       -1.71158       -0.53990
H         -3.90669        0.46123        0.41782
