31
Coordinates from ORCA-job ./opt_b97-3c_parallel
N          5.66872        2.57658        0.07974
C          4.74931        1.89838        0.05322
C          3.60425        1.02764        0.01961
C          3.64916       -0.34709       -0.00814
C          2.31818       -0.90391       -0.03065
C          1.66367       -2.15977       -0.05378
N          2.41623       -3.29811       -0.10308
C          0.28149       -2.21700       -0.03112
C         -0.55794       -1.07271       -0.01019
C         -1.95625       -1.33198        0.02211
C         -2.45584       -2.69472        0.06035
N         -2.86539       -3.76153        0.09090
C         -3.02691       -0.43760        0.03217
C         -3.05555        0.94712       -0.00859
C         -4.39065        1.51353        0.00275
N         -5.44834        1.94734        0.01754
C         -1.95382        1.80170       -0.05898
N         -2.18690        3.15538       -0.11835
C         -0.60523        1.45218       -0.05441
C          0.06105        0.21166       -0.02305
C          1.48379        0.27988       -0.01626
C          2.29029        1.42251        0.01635
H          4.60350       -0.86847       -0.00830
H          3.42579       -3.23727       -0.02948
H          1.96787       -4.20464       -0.02963
H         -0.11430       -3.22727       -0.04135
H         -4.01729       -0.89714        0.06844
H         -3.13468        3.50137       -0.00454
H         -1.41584        3.80416       -0.00920
H          0.01722        2.33384       -0.09486
H          1.98986        2.46460        0.04621
