32
Coordinates from ORCA-job ./opt_b97-3c_parallel
N          5.11941        1.55610        0.70898
C          4.07964        1.13290        0.49065
C          2.76950        0.58252        0.20949
C          1.78192        1.60801        0.06016
N          1.93221        2.74205       -0.68951
N          0.70073        1.50199        0.07927
C         -0.27149        0.58658        0.02537
C         -0.04321       -0.80874       -0.08378
N         -1.12694       -1.64646       -0.17547
C         -2.39657       -1.18782       -0.13836
N         -3.38062       -2.12593       -0.25372
C         -2.64634        0.17312       -0.00632
C         -3.82061        0.90935        0.08145
N         -5.06556        0.34685        0.11388
C         -3.54192        2.32931        0.18603
C         -2.09121        2.32172        0.17283
C         -1.59473        1.03351        0.06235
C          1.24963       -1.41463       -0.07788
C          1.27397       -2.86632       -0.21868
N          1.31050       -4.00425       -0.32509
C          2.52224       -0.79745        0.09999
N          3.63708       -1.60612        0.19048
H          1.16826        3.40670       -0.73797
H          2.86721        3.09322       -0.86702
H         -4.31000       -1.80984       -0.50604
H         -3.11112       -3.06201       -0.53531
H         -5.13207       -0.64345        0.32090
H         -5.84576        0.93309        0.38947
H         -4.17946        3.07705        0.64645
H         -1.42103        3.17516        0.24091
H          3.50973       -2.60729        0.29929
H          4.51537       -1.19963        0.49561
