31
Coordinates from ORCA-job ./opt_b97-3c_parallel
N         -5.30505       -0.64811       -0.42308
C         -4.18831       -0.43293       -0.30492
C         -2.77692       -0.14909       -0.14335
C         -2.28477        1.16600       -0.09264
N         -3.18896        2.19804       -0.14094
C         -0.93661        1.56006        0.00429
C          0.26225        0.79816        0.02724
C          1.50271        1.48533        0.11374
C          1.58326        2.92830        0.23040
N          1.65616        4.06650        0.31460
C          2.71600        0.78460        0.09604
N          3.94977        1.37213        0.19263
C          2.77975       -0.63631       -0.04521
C          3.64552       -1.79700       -0.12021
C          2.94667       -2.98734       -0.16397
C          1.61106       -2.68648       -0.12907
C          1.49721       -1.30510       -0.06608
C          0.27870       -0.61322       -0.03868
N         -0.85094       -1.33431       -0.06712
C         -1.94090       -1.31286       -0.05464
N         -2.31427       -2.51859        0.47245
H         -2.85694        3.15038       -0.24750
H         -4.16430        1.99659       -0.33657
H         -0.83390        2.63994        0.04178
H          4.77474        0.81829       -0.00924
H          4.01899        2.38275        0.13321
H          4.73228       -1.80032       -0.14592
H          3.37871       -3.98333       -0.22285
H          0.79848       -3.40805       -0.15555
H         -3.30153       -2.74068        0.54887
H         -1.65705       -3.28954        0.46615
