33
Coordinates from ORCA-job ./opt_b97-3c_parallel
N         -6.01075       -0.32800        0.80684
C         -5.02290        0.11070        0.43599
C         -3.61678       -0.00753        0.19550
C         -3.01188        1.29417        0.13919
C         -1.61645        1.06812       -0.11500
C         -0.48119        1.91189       -0.32907
N         -0.81961        3.21499       -0.59351
C          0.83588        1.45649       -0.22966
C          1.86279        2.42236       -0.58579
N          2.66027        3.18365       -0.88834
C          1.11615        0.07163       -0.06754
C          2.43345       -0.35427        0.27001
C          3.21460        0.52085        1.13537
N          3.82580        1.19090        1.83183
C          3.04966       -1.59699        0.00194
N          4.37804       -1.77532        0.31152
C          2.49673       -2.71081       -0.61477
C          1.17264       -2.95266       -0.91424
C          0.08187       -2.13557       -0.68716
C          0.02202       -0.79791       -0.28854
C         -1.35333       -0.33841       -0.12792
C         -2.58793       -1.01013        0.18515
N         -3.00394       -2.27360        0.49856
H         -3.43197        2.29708        0.17684
H         -1.78232        3.51361       -0.48622
H         -0.09003        3.92110       -0.60397
H          4.77499       -2.70752        0.27480
H          4.85573       -1.06869        0.86167
H          3.16761       -3.54362       -0.82101
H          0.95189       -3.93840       -1.31792
H         -0.86098       -2.61941       -0.92411
H         -3.95769       -2.41859        0.81288
H         -2.31210       -2.99032        0.68861
