31
Coordinates from ORCA-job ./opt_b97-3c_parallel
N          5.81923        0.56649        0.09732
C          4.67937        0.47655        0.08377
C          3.24190        0.35107        0.04830
C          2.62542        1.63648       -0.08008
N          1.55843        1.87364       -0.04083
C          0.34111        1.31741       -0.00260
C         -0.76390        2.18286        0.01601
C         -2.07071        1.69545        0.04146
N         -3.13679        2.55092        0.06486
C         -2.24160        0.31495        0.02325
C         -3.44833       -0.44626        0.04606
N         -4.80174       -0.36522        0.19813
N         -2.64006       -1.23433       -0.02489
C         -1.70044       -1.85866       -0.10350
N         -1.52786       -3.18489       -0.37426
C         -1.18368       -0.52932       -0.01206
C          0.14751       -0.08057        0.00617
C          1.17095       -1.04601        0.06024
C          2.56423       -0.87410        0.10854
N          3.30136       -2.02356        0.23101
H          2.99855        2.52091       -0.58332
H         -0.59850        3.25846        0.01207
H         -2.97519        3.53407       -0.12464
H         -4.05886        2.17489       -0.12687
H         -5.32806       -1.21055        0.38700
H         -5.21077        0.51566        0.48905
H         -2.33886       -3.74480       -0.61093
H         -0.63164       -3.49471       -0.73337
H          0.84888       -2.08283        0.10416
H          2.82676       -2.87386        0.51398
H          4.28748       -1.93900        0.45747
