29
Coordinates from ORCA-job ./opt_b97-3c_parallel
N         -1.18131        3.70514       -0.08192
C         -0.71348        2.66257       -0.06172
C         -0.10164        1.34787       -0.03831
C          1.29841        1.24516       -0.02214
N          2.11738        2.34600       -0.04139
C          1.85217       -0.03016        0.01102
C          3.22758       -0.40557        0.06360
N          4.50782        0.04467        0.19302
N          2.67661       -1.39061        0.02946
C          1.96774       -2.27022        0.03629
C          1.08539       -1.14488        0.00625
C         -0.31637       -1.09590       -0.01706
C         -1.02194       -2.31706       -0.02978
C         -2.40422       -2.54732       -0.05750
C         -3.42504       -1.59831       -0.05959
C         -3.21430       -0.18420       -0.01515
N         -4.21434        0.72368        0.16782
N         -2.24731        0.32133       -0.02695
C         -0.91089        0.18733       -0.02888
H          3.09749        2.20792       -0.26178
H          1.70591        3.24815       -0.25655
H          5.24790       -0.61893        0.39106
H          4.66357        1.01190        0.45471
H          1.76136       -3.32221       -0.11674
H         -0.43169       -3.22787       -0.02667
H         -2.71900       -3.58764       -0.07981
H         -4.46255       -1.92457       -0.08388
H         -5.18329        0.43104        0.11756
H         -4.00751        1.71564        0.12240
