30
Coordinates from ORCA-job ./opt_b97-3c_parallel
N         -5.33456       -0.50830       -0.30798
C         -4.22017       -0.29722       -0.16837
C         -2.81326       -0.03993        0.02138
C         -2.26683        1.30036        0.01239
N         -3.00131        2.43230        0.22891
N         -1.24193        1.71497       -0.02272
C          0.01961        1.22659       -0.02737
C          1.09246        2.13185       -0.06864
C          2.41810        1.68855       -0.06516
N          3.45450        2.57903       -0.10532
C          2.64051        0.31445       -0.01731
C          3.86869       -0.41007        0.00194
N          3.07440       -1.21732        0.03767
C          2.16048       -1.88432        0.07013
N          1.74606       -3.18111        0.14509
C          1.61608       -0.56678        0.02043
C          0.27836       -0.16291        0.01375
N         -0.71216       -1.08408        0.04372
C         -1.81599       -1.08875        0.04343
N         -2.09401       -2.42497       -0.03161
H         -2.57005        3.34184        0.11062
H         -4.01422        2.37977        0.22041
H          0.88673        3.19981       -0.10184
H          4.39446        2.24537        0.07697
H          3.25995        3.56442        0.03494
H          4.88144       -0.03184       -0.06350
H          2.41857       -3.91335        0.34090
H          0.76543       -3.37471        0.31613
H         -3.04530       -2.72753       -0.21117
H         -1.34477       -3.08244       -0.21472
