28
Coordinates from ORCA-job ./opt_b97-3c_parallel
N          3.54373       -1.85364        1.25116
C          2.93535       -1.00090        0.79291
C          2.18042        0.10419        0.23403
C          2.99545        1.23395        0.14430
C          2.67246        2.52911       -0.20259
C          1.41007        3.05594       -0.36041
C          0.18705        2.42257       -0.21794
C         -0.14345        1.06458       -0.04992
C          0.78249       -0.02268       -0.01553
C          0.24301       -1.31891       -0.27254
C          0.99259       -2.43363       -0.81172
N          1.56506       -3.32110       -1.25080
C         -1.12348       -1.55570       -0.23559
C         -2.01123       -0.56168        0.25162
C         -3.41330       -0.23708        0.22086
N         -4.26880       -1.30078        0.22029
C         -3.91095        1.10772        0.11738
C         -2.59747        1.66807        0.01810
C         -1.53288        0.76961        0.04007
H          4.05789        1.09080        0.34330
H          3.50178        3.22762       -0.29071
H          1.37066        4.12346       -0.56800
H         -0.61340        3.13951       -0.31355
H         -1.54156       -2.52312       -0.50796
H         -3.90399       -2.22613        0.42064
H         -5.26117       -1.13647        0.35110
H         -4.74241        1.53516        0.66824
H         -2.52937        2.74727       -0.05746
