32
Coordinates from ORCA-job ./opt_b97-3c_parallel
N          5.04269       -2.27542        0.92518
C          3.99104       -2.21189        0.48080
C          3.03114       -1.17712        0.25846
C          1.60695       -1.34536        0.27852
C          0.79512       -0.26474       -0.06027
C          1.54460        0.92922       -0.30906
C          2.74272        0.21586        0.04637
N          3.83646        1.01703        0.22106
C          0.84609        2.17237       -0.33408
N          1.62229        3.27709       -0.56509
C         -0.53310        2.21684       -0.12782
C         -1.17004        3.52022       -0.13388
N         -1.67272        4.54664       -0.15400
C         -1.27429        1.02167        0.04138
C         -2.65746        1.15625        0.27309
C         -3.57606        0.10580        0.60653
N         -3.68119       -0.95175        0.31566
C         -2.81101       -1.54280       -0.01222
N         -3.58748       -2.66836       -0.15622
C         -1.36463       -1.46116       -0.10731
C         -0.84240       -2.68702       -0.68037
N         -0.43625       -3.64949       -1.14581
C         -0.62387       -0.24900       -0.02584
H          1.23419       -2.27709        0.69229
H          3.69517        2.01666        0.31917
H          4.67719        0.61184        0.61976
H          2.56645        3.13805       -0.90840
H          1.16123        4.15335       -0.78707
H         -3.19305        2.09951        0.34171
H         -4.55150        0.18561        1.07354
H         -4.59854       -2.60509       -0.09960
H         -3.18218       -3.51569       -0.53912
