29
Coordinates from ORCA-job ./opt_b97-3c_parallel
N         -2.95041       -3.54695       -0.03037
C         -2.20749       -2.67841       -0.02710
C         -1.25433       -1.59697       -0.01518
C          0.11605       -1.87322       -0.07337
C          1.09227       -0.85125       -0.03729
C          2.46286       -1.20556       -0.06405
N          2.84174       -2.49942       -0.30639
C          3.51617       -0.31460        0.17172
C          3.35200        1.06189        0.55628
N          2.57082        1.81910        0.36087
C          1.54585        1.61666        0.00553
N          1.41256        2.66513       -0.86371
C          0.64366        0.48884        0.03219
C         -0.72969        0.71403        0.09375
C         -1.49053        1.89842        0.17618
C         -2.82400        1.34503        0.18538
N         -3.91767        2.15557        0.25357
N         -2.92501        0.22440        0.13253
C         -1.66721       -0.27074        0.07070
H          0.41072       -2.91877       -0.12044
H          3.82238       -2.68708       -0.48293
H          2.16425       -3.12855       -0.72173
H          4.55116       -0.64879        0.15324
H          4.05365        1.70432        1.07528
H          2.05276        3.44894       -0.80535
H          0.53931        2.79815       -1.36050
H         -1.19122        2.94060        0.22323
H         -4.83683        1.74560        0.37724
H         -3.80565        3.14695        0.43257
