27
Coordinates from ORCA-job ./opt_b97-3c_parallel
N         -5.58741       -0.92140        0.00471
C         -4.50454       -0.55605        0.00616
C         -3.13411       -0.11422        0.00720
C         -2.93822        1.30936        0.01128
N         -2.06976        1.99138        0.01842
C         -1.00298        1.71054        0.00200
N         -0.59125        3.01282       -0.09639
C         -0.15220        0.53499       -0.00304
C         -0.71522       -0.76409        0.00121
C         -2.09287       -1.04621        0.00492
C          0.13495       -1.88081        0.00165
C          1.52125       -1.73895       -0.00237
C          2.36740       -2.90524       -0.00078
N          3.02473       -3.84045        0.00018
C          2.05356       -0.45213       -0.00719
N          3.33889       -0.07623       -0.01146
C          2.83814        0.93658       -0.01208
N          3.99017        1.67819       -0.01790
N          2.03445        1.73095       -0.00899
C          1.25153        0.64236       -0.00650
H         -3.68598        2.09459        0.00855
H         -1.25401        3.76915        0.03441
H          0.39750        3.22935       -0.02689
H         -2.38884       -2.09400        0.00523
H         -0.28740       -2.88429        0.00613
H          3.94626        2.68512       -0.12441
H          4.88960        1.22031       -0.11708
