35
Coordinates from ORCA-job ./opt_b97-3c_parallel
N         -5.19609        2.47655        0.96691
C         -4.25740        1.90229        0.65672
C         -3.06036        1.17061        0.28528
C         -3.09166       -0.16418        0.66357
C         -2.19777       -1.20084        0.40045
C         -2.73007       -2.45216        0.90070
N         -3.17507       -3.42417        1.30784
C         -0.86298       -1.10021       -0.07173
C         -0.12388       -2.25324       -0.46076
C         -0.70051       -3.51386       -0.87725
N         -1.13627       -4.50992       -1.22969
C          1.23880       -2.17584       -0.71438
C          2.02531       -1.04746       -0.33495
C          3.40911       -0.87054        0.00661
N          4.31806       -1.88710       -0.09244
C          3.48990        0.50653        0.41282
C          4.78695        1.08773        0.58312
N          5.61144        1.64246        1.14811
C          2.18216        1.09092        0.54666
N          2.04513        2.33731        1.09251
C          1.28205        0.14289       -0.05900
C         -0.17370        0.12373       -0.23483
C         -0.74752        1.34307       -0.66627
C          0.12619        2.21476       -1.44020
N          0.80486        2.89464       -2.06127
C         -2.05758        1.81824       -0.44838
N         -2.35915        3.09073       -0.89412
H         -4.00977       -0.45910        1.17818
H          1.79525       -3.03537       -1.08485
H          3.98829       -2.83676       -0.22308
H          5.24755       -1.74827        0.29080
H          1.19733        2.85300        0.88359
H          2.89092        2.88339        1.22365
H         -1.60942        3.68280       -1.23585
H         -3.20427        3.54075       -0.55657
