27
Coordinates from ORCA-job ./opt_b97-3c_parallel
N         -3.40594        3.08855        0.00879
C         -2.82627        2.10286        0.00632
C         -2.08033        0.86763        0.00166
C         -0.68372        0.94126       -0.00352
C          0.21332       -0.14340       -0.00504
C         -0.17328       -1.50456        0.00258
C          0.78895       -2.52672        0.00119
C          2.14963       -2.22480       -0.00752
C          2.49527       -0.88378       -0.01479
C          3.74825       -0.24310       -0.02640
C          3.32157        1.13670       -0.03099
N          4.22684        2.15560       -0.04645
N          2.21254        1.33431       -0.02385
C          1.58804        0.13286       -0.01399
C         -1.55684       -1.90077        0.01310
N         -2.57410       -1.47192        0.01177
C         -2.79229       -0.39010        0.00236
N         -4.15550       -0.50740       -0.04959
H         -0.25969        1.94349       -0.00652
H          0.47554       -3.56833        0.00702
H          2.90499       -3.00680       -0.00878
H          4.75694       -0.64323       -0.03147
H          5.20959        1.95947       -0.19748
H          3.90279        3.10803       -0.17356
H         -1.97489       -2.90100        0.00467
H         -4.59648       -1.41729        0.02227
H         -4.73904        0.32074        0.00012
