25
Coordinates from ORCA-job ./opt_b97-3c_parallel
N          5.77625       -1.34480        0.00433
C          4.74668       -0.84861       -0.00626
C          3.43965       -0.24459       -0.01408
C          3.40486        1.19060        0.08539
N          2.62943        1.97319        0.02077
C          1.53834        1.82960       -0.06134
C          0.57761        0.75460       -0.03853
C          0.96663       -0.60484       -0.05587
C          2.29887       -1.05010       -0.06744
C         -0.02291       -1.60224       -0.05527
C         -1.37928       -1.27696       -0.02304
C         -2.38178       -2.30980       -0.00919
N         -3.16685       -3.13968        0.00656
C         -1.71387        0.06997        0.00260
C         -2.96838        0.71636        0.03943
C         -4.38285        0.52400        0.07748
N         -5.35479       -0.07806        0.08434
C         -2.46990        2.07427        0.04055
N         -1.36274        2.28825        0.01570
C         -0.78564        1.06704       -0.00797
H          4.20032        1.86212        0.39000
H          1.39275        2.85498       -0.38425
H          2.46751       -2.12484       -0.10670
H          0.26513       -2.65214       -0.07100
H         -3.01851        3.00867        0.06551
