28
Coordinates from ORCA-job ./opt_b97-3c_parallel
N         -3.67359        1.76659       -0.06568
C         -2.97015        0.91920        0.02385
C         -3.66328       -0.32124        0.22329
C         -3.01185       -1.53220        0.25789
N         -1.75276       -1.98403        0.12247
C         -0.63469       -1.17076       -0.01257
N          0.43861       -2.04898       -0.13868
C          1.70322       -1.51139       -0.23359
N          2.48335       -2.27199       -0.41496
C          1.91051       -0.11271       -0.02583
C          2.90864        0.92673        0.13310
N          3.92030        0.50310        0.26276
C          2.45374        2.20371        0.16329
C          1.14750        2.15093        0.04902
C          0.81074        0.83131       -0.03696
C         -0.54199        0.28421       -0.04043
C         -1.62642        1.11360       -0.09513
H         -4.68259        1.67201       -0.18434
H         -3.44804        2.70688       -0.39050
H         -4.74884       -0.30162        0.32193
H         -3.75562       -2.33193        0.40024
H          2.73916       -3.23597       -0.63256
H          3.32957       -1.71891       -0.56758
H          4.39441        1.38535        0.06609
H          4.51269        0.01512        0.93422
H          3.05411        3.10576        0.27141
H          0.48474        3.01329        0.05743
H         -1.38082        2.13081       -0.39381
