28
Coordinates from ORCA-job ./opt_b97-3c_parallel
N          5.33631       -2.01583        0.13321
C          4.37925       -1.39164        0.10007
C          3.16099       -0.61915        0.05532
C          1.94225       -1.30716        0.06055
C          0.65734       -0.73775        0.03763
C         -0.42479       -1.63513        0.02477
C         -1.75257       -1.19775       -0.00219
C         -2.80718       -2.18031       -0.01732
N         -3.62939       -2.97394       -0.02925
C         -1.98733        0.17943       -0.01426
C         -3.16906        0.92122       -0.04104
C         -4.52731        0.44025       -0.06672
N         -5.60971        0.07476       -0.08781
C         -2.82214        2.26687       -0.04079
C         -1.43740        2.36328       -0.01430
C         -0.93049        1.07073        0.00178
C          0.39906        0.64917        0.02898
C          1.45458        1.62941        0.05235
N          2.55718        1.68933        0.05327
C          3.23991        0.82307        0.00824
N          4.38988        1.52589       -0.23114
H          2.00303       -2.39390        0.08302
H         -0.23100       -2.70656        0.03316
H         -3.51736        3.10311       -0.05878
H         -0.86391        3.28686       -0.00875
H          1.40785        2.67670        0.32895
H          4.39522        2.53544       -0.13720
H          5.28165        1.04241       -0.23766
