23
Coordinates from ORCA-job ./opt_b97-3c_parallel
N         -1.64515        3.69685        0.00312
C         -1.01722        2.74091        0.00255
C         -0.20556        1.54543        0.00126
C          1.18117        1.70776        0.00094
C          1.97207        0.56807       -0.00015
C          3.39399        0.47226       -0.00031
N          3.02893       -0.59788       -0.00149
C          2.51488       -1.60474       -0.00327
C          1.43173       -0.67136       -0.00149
C          0.04481       -0.88914       -0.00139
C         -0.41631       -2.22039       -0.00319
C         -1.73114       -2.70285       -0.00376
C         -2.91064       -1.95944       -0.00171
C         -2.99214       -0.53018        0.00175
N         -2.12308        0.13411        0.00145
C         -0.78508        0.25568        0.00034
H          1.63359        2.69704        0.00174
H          4.13142        1.26601       -0.00142
H          2.50193       -2.68753        0.00476
H          0.33507       -3.00349       -0.00467
H         -1.84661       -3.78390       -0.00608
H         -3.87373       -2.46400       -0.00262
H         -3.87690        0.09540        0.00752
