26
Coordinates from ORCA-job ./opt_b97-3c_parallel
N         -4.25055        1.29503        0.17321
C         -3.38009        0.61009        0.13823
C         -3.38985       -0.77000        0.16602
C         -2.06454       -1.08608        0.11351
N         -1.42781       -2.31385        0.09885
C         -0.04171       -2.36730        0.04859
C          0.74766       -1.23434        0.01738
C          2.13964       -1.64612       -0.02027
N          3.23983       -0.87547       -0.04258
C          3.01975        0.47156       -0.04249
N          4.08761        0.76695       -0.05461
N          2.19913        1.57411       -0.03349
C          0.82618        1.35986       -0.00544
N          0.76731        2.47285       -0.01375
C          0.18357        0.04653        0.02535
C         -1.26683        0.07861        0.07191
N         -2.09984        1.16860        0.08913
H         -4.50766        2.28434        0.17595
H         -5.14501        0.80281        0.23857
H         -4.12533       -1.35168       -0.38902
H         -0.06286       -3.46957        0.05632
H          2.65896       -2.61815       -0.02955
H          4.87543        0.11372       -0.04289
H          4.53260        1.68655       -0.05723
H         -0.18087        2.84359       -0.09501
H          1.34132        3.32184        0.02360
