32
Coordinates from ORCA-job ./opt_b97-3c_parallel
N          4.97288       -1.64638       -0.22525
C          3.94049       -1.16388       -0.13387
C          2.63079       -0.54515       -0.03757
C          1.55241       -1.49070       -0.03342
N          1.65114       -2.85558       -0.01969
N          0.48700       -1.29170       -0.02260
C         -0.42882       -0.32211       -0.01837
C         -0.10811        1.05674       -0.00798
C         -1.20565        1.96270       -0.06072
C         -2.53671        1.54077       -0.10074
N         -3.55521        2.44976       -0.17002
C         -2.78615        0.17674       -0.06734
C         -4.02578       -0.52762       -0.08214
N         -3.24399       -1.34639       -0.04287
C         -2.33614       -2.01912        0.01341
N         -2.01367       -3.33647        0.15714
C         -1.77307       -0.70802       -0.02579
C          1.22710        1.57027        0.05911
C          1.36801        3.01529        0.17015
N          1.48835        4.14793        0.27090
C          2.46321        0.85220        0.04089
N          3.63828        1.57623        0.09492
H          0.82556       -3.41679       -0.19472
H          2.55739       -3.29120       -0.15536
H         -1.06111        3.03854       -0.08482
H         -4.51093        2.13578       -0.04369
H         -3.34914        3.43667       -0.05925
H         -5.03302       -0.12992       -0.08212
H         -2.74294       -4.00454        0.37820
H         -1.06097       -3.57955        0.40409
H          4.53152        1.10176        0.01249
H          3.61214        2.59036        0.09535
