32
Coordinates from ORCA-job ./opt_b97-3c_parallel
N          4.77509       -1.99864        0.02189
C          3.74742       -1.49790        0.05942
C          2.43116       -0.86504        0.09195
C          1.35246       -1.74278        0.28087
N          1.59364       -3.08470        0.46670
C          0.00177       -1.44001        0.26534
C         -0.66251       -0.22670        0.15506
C         -0.12860        1.07914        0.10645
C         -1.07530        2.13985        0.19224
C         -2.45318        1.96016        0.27663
C         -2.98628        0.68737        0.23197
C         -4.34612        0.43938        0.24555
C         -4.73450       -0.93108        0.10718
C         -3.32706       -1.11900       -0.14625
N         -3.11022       -2.24733       -0.88794
C         -2.09508       -0.41618        0.12462
C          1.25255        1.40650       -0.01935
C          1.57281        2.82494       -0.15158
N          1.83939        3.93221       -0.26289
C          2.38075        0.54023       -0.07128
N          3.61131        1.14527       -0.27748
H          0.83781       -3.67245        0.80138
H          2.54452       -3.38506        0.65558
H         -0.65308       -2.30599        0.36839
H         -0.77959        3.18411        0.21533
H         -3.10693        2.82575        0.35130
H         -5.05883        1.25792        0.31593
H         -5.54968       -1.27329       -0.52303
H         -2.15924       -2.56093       -1.04786
H         -3.87050       -2.90235       -1.03275
H          4.42093        0.56643       -0.47466
H          3.64370        2.12292       -0.54858
