32
Coordinates from ORCA-job ./opt_b97-3c_parallel
N          5.95367        1.01543       -0.99090
C          5.34271        0.28060       -0.36151
C          4.00981        0.00975        0.07940
C          3.47113       -1.31366        0.19522
C          2.09901       -1.41953        0.33769
C          1.44824       -2.64414        0.29548
C          0.05959       -2.67600        0.22719
C         -0.71982       -1.51199        0.21741
N         -2.03374       -1.68241        0.04586
C         -2.94303       -1.09354       -0.05758
N         -3.84770       -2.06842       -0.37988
C         -3.15803        0.32459       -0.12229
C         -4.49001        0.72050       -0.53845
N         -5.53243        1.04035       -0.88212
C         -2.18499        1.26829        0.25405
N         -2.60514        2.58163        0.30818
C         -0.81820        0.98984        0.53409
C         -0.02665        2.10938        1.01932
N          0.58429        2.98784        1.42229
C         -0.12563       -0.24501        0.39551
C          1.32653       -0.21754        0.44756
C          2.59578        0.28104       -0.03186
N          2.47572        1.40531       -0.80493
H          4.08548       -2.20513        0.08516
H          2.01387       -3.57197        0.24467
H         -0.42999       -3.64429        0.13997
H         -4.80423       -1.82438       -0.61368
H         -3.58973       -3.04767       -0.33320
H         -3.59220        2.79569        0.21037
H         -1.98828        3.28779        0.69624
H          3.31845        1.93130       -1.01226
H          1.60741        1.92705       -0.75303
