34
Coordinates from ORCA-job ./opt_b97-3c_parallel
N         -5.23151       -1.44960        0.07492
C         -4.30975       -0.77539        0.02815
C         -3.14690        0.08521       -0.04755
C         -3.37634        1.30769       -0.65149
C         -2.59665        2.43508       -0.48600
C         -1.29823        2.55309        0.00613
N         -1.02917        3.85685        0.33536
C         -0.31135        1.52528        0.07250
C          1.08350        1.87102        0.06871
N          1.52840        3.15920       -0.12604
C          2.09965        0.90097        0.16300
C          3.49756        1.28898        0.18114
N          4.59278        1.61651        0.19037
C          1.73340       -0.43849        0.12565
C          2.52145       -1.59175        0.04197
C          3.95714       -1.72382        0.01865
N          5.09266       -1.84938       -0.00354
C          1.67307       -2.66532       -0.14134
C          0.37343       -2.19183       -0.14675
C         -0.72464       -3.02735       -0.57214
N         -1.58345       -3.69899       -0.91484
C          0.39962       -0.80378        0.08021
C         -0.65033        0.14302        0.16178
C         -1.93191       -0.34226        0.50079
N         -2.00238       -1.35094        1.43503
H         -4.36424        1.47739       -1.07728
H         -3.11010        3.36325       -0.73480
H         -0.19468        4.04293        0.88255
H         -1.80937        4.49523        0.44542
H          0.87013        3.84083       -0.48854
H          2.51202        3.30552       -0.32796
H          1.97915       -3.69269       -0.32760
H         -2.87720       -1.85468        1.54326
H         -1.14894       -1.80647        1.73663
