31
Coordinates from ORCA-job ./opt_b97-3c_parallel
N         -5.63006        1.82363       -0.23599
C         -4.62518        1.28420       -0.15813
C         -3.34692        0.62076       -0.06176
C         -2.19270        1.40938       -0.10283
C         -0.85738        0.96936       -0.05365
C          0.11104        1.98725       -0.06809
C          1.47251        1.69821       -0.02344
C          2.44000        2.76510       -0.03360
N          3.19676        3.62110       -0.03891
C          1.84237        0.36142        0.03350
C          3.12044       -0.24705        0.07808
C          4.48129        0.19827        0.07176
N          5.54046        0.58138        0.26633
C          2.65886       -1.61851        0.11262
N          3.52961       -2.67038        0.13762
N          1.56054       -1.85781        0.10688
C          0.93430       -0.66020        0.04867
C         -0.44549       -0.38565        0.00237
C         -1.42435       -1.45620        0.01336
N         -1.19386       -2.75615       -0.35147
N         -2.51975       -1.58854        0.07662
C         -3.30824       -0.81434        0.08584
N         -4.40247       -1.58769        0.36675
H         -2.35555        2.48336       -0.17928
H         -0.19867        3.03022       -0.11068
H          4.53054       -2.50855        0.17543
H          3.18568       -3.62292        0.18429
H         -0.23576       -3.08794       -0.38829
H         -1.91921       -3.44884       -0.20182
H         -4.32938       -2.59749        0.31633
H         -5.32851       -1.17545        0.32913
