27
Coordinates from ORCA-job ./opt_b97-3c_parallel
N         -0.44083        3.40224       -1.37308
C         -0.67879        2.38360       -0.91426
C         -1.01799        1.12893       -0.31331
C         -2.40583        0.99504        0.09599
N         -3.42340        1.41308        0.19562
N         -3.16468       -0.16052        0.25328
C         -2.59212       -1.38177        0.00343
N         -3.31150       -2.21307        0.08045
N         -1.32250       -1.80456       -0.23900
C         -0.10656       -1.27456       -0.28516
N          0.95806       -2.11950       -0.34521
C          2.20684       -1.64241       -0.16974
N          3.23753       -2.53273       -0.25334
C          2.40393       -0.30072        0.13095
C          3.61520        0.40386        0.39163
N          2.77547        1.16197        0.44948
C          1.87709        1.84572        0.47805
C          1.35531        0.55254        0.16401
C          0.03754        0.12451       -0.10391
H         -4.38041        1.52439       -0.13931
H         -2.98613        2.32988        0.10489
H         -3.08220       -3.17759        0.31807
H         -4.29690       -2.08812        0.30928
H          4.18625       -2.17794       -0.31191
H          3.05433       -3.45547       -0.63260
H          4.70096        0.23527        0.45096
H          2.10192        2.81503        0.94866
