30
Coordinates from ORCA-job ./opt_b97-3c_parallel
N         -3.41632        1.87103        0.06142
C         -2.88879        0.61392        0.04433
C         -3.68953       -0.57137        0.00773
C         -3.17714       -1.86644       -0.02426
C         -1.83020       -2.25099       -0.02577
C         -0.66614       -1.46281        0.00104
N          0.49943       -2.16787       -0.00768
C          1.68816       -1.52838        0.00955
N          2.79511       -2.32647        0.03180
C          1.74502       -0.13619        0.03579
C          2.81918        0.74562        0.04100
N          4.12659        0.35441       -0.04461
C          2.37393        2.12337        0.09742
C          0.93616        1.93537        0.08968
N          0.03647        2.96319        0.12015
C          0.58586        0.58882        0.05573
C         -0.66439       -0.04821        0.03721
N         -1.79782        0.67060        0.05045
H         -4.41167        2.00047       -0.07836
H         -2.80833        2.67049       -0.07442
H         -4.76665       -0.42114        0.00457
H         -3.90757       -2.67118       -0.05066
H         -1.67132       -3.32746       -0.05270
H          3.66821       -1.91254        0.33756
H          2.65845       -3.31463        0.21262
H          4.82329        1.06400       -0.24282
H          4.31724       -0.58742       -0.36835
H          2.91091        2.99519       -0.26195
H          0.36434        3.89337        0.35470
H         -0.93720        2.73843        0.29853
