31
Coordinates from ORCA-job ./opt_b97-3c_parallel
N          0.43938        3.28497        1.02866
C          0.69732        2.23280        0.66327
C          1.04987        0.89689        0.22872
C          2.48831        0.76357        0.15895
N          3.32494        1.71672       -0.36545
N          3.24186       -0.04412        0.14659
C          3.04128       -1.12970        0.13691
N          4.23733       -1.59861       -0.32824
C          1.89021       -1.97730        0.28347
C          0.55821       -1.54612        0.25765
C         -0.39867       -2.57363        0.32523
C         -1.76177       -2.29980        0.27843
C         -2.14927       -0.97533        0.14533
C         -3.46654       -0.46128       -0.03196
N         -4.71223       -1.01676       -0.03613
N         -2.79775        0.44514       -0.12324
C         -1.98153        1.21754       -0.22262
N         -2.18711        2.49294       -0.66199
C         -1.24563        0.03429        0.10188
C          0.14449       -0.18678        0.18793
H          4.32722        1.56757       -0.33602
H          2.99566        2.67329       -0.43599
H          4.93766       -0.93921       -0.64925
H          4.30717       -2.55624       -0.65286
H          2.13648       -3.03416        0.36476
H         -0.08159       -3.61144        0.40153
H         -2.49739       -3.10031        0.30847
H         -5.53057       -0.41950       -0.07238
H         -4.83422       -1.98449        0.23912
H         -3.12478        2.87538       -0.69421
H         -1.40226        3.13272       -0.72815
