33
Coordinates from ORCA-job ./opt_b97-3c_parallel
N         -6.08718        1.24400        0.05104
C         -4.98049        0.95535        0.03739
C         -3.58210        0.57428        0.02744
C         -3.36129       -0.78902        0.10629
C         -2.17475       -1.50398        0.09869
C         -0.82469       -1.10025        0.02835
C          0.13316       -2.15616       -0.01287
C         -0.23043       -3.56208       -0.06360
N         -0.50492       -4.67091       -0.11111
C          1.50063       -1.88750       -0.03651
N          2.47994       -2.84307       -0.11995
C          1.97948       -0.55429        0.05130
C          3.08917        0.36064        0.07078
N          4.31061       -0.22206        0.26296
C          3.10019        1.78816       -0.09828
C          3.93760        2.94548       -0.06734
N          5.01577        3.29940        0.07027
C          1.66639        1.74387       -0.10809
C          1.02498        0.50518       -0.02957
C         -0.37767        0.25353       -0.01407
C         -1.21194        1.39157       -0.05076
C         -2.59791        1.56131       -0.05011
N         -3.00612        2.87178       -0.12752
H         -4.25338       -1.41191        0.17179
H         -2.39806       -2.56229        0.16539
H          2.20979       -3.79133       -0.35951
H          3.42152       -2.54593       -0.35194
H          4.34506       -1.17800        0.59993
H          5.11342        0.37479        0.43317
H          1.19647        2.71729       -0.18706
H         -0.71967        2.34997       -0.09192
H         -2.32531        3.61436       -0.01521
H         -3.98788        3.09092        0.00897
