26
Coordinates from ORCA-job ./opt_b97-3c_parallel
N          0.33283       -4.12954        0.03766
C         -0.09564       -3.07140        0.04026
C         -0.56444       -1.71941        0.03863
C         -1.98136       -1.50923       -0.08082
C         -2.51988       -0.20861        0.15044
C         -3.77236        0.30723        0.07101
C         -3.63456        1.63156        0.03415
C         -2.35936        2.01416        0.05668
C         -1.61666        0.87280        0.09284
C         -0.23838        0.74023        0.03213
N          0.46471        1.90497       -0.03203
C          1.84918        1.84137       -0.05558
N          2.06201        2.92369       -0.13164
N          3.01367        1.09005       -0.02494
C          2.77921       -0.27277        0.06847
N          3.51913       -1.09032        0.13255
N          1.59016       -0.78491        0.09010
C          0.31028       -0.55515        0.05734
H         -2.74148       -2.22451       -0.39111
H         -4.70768       -0.24871        0.07251
H         -4.47382        2.32316       -0.00747
H         -1.99858        3.04042        0.03710
H          1.39612        3.69511       -0.20303
H          2.98146        3.36229       -0.20164
H          3.41835       -2.10306        0.04049
H          4.49879       -0.94031        0.37889
