31
Coordinates from ORCA-job ./opt_b97-3c_parallel
N          5.25088        1.15659        0.21739
C          4.22329        0.66156        0.13409
C          2.90836        0.03037        0.04479
C          2.93821       -1.35089       -0.21155
N          4.13808       -1.98082       -0.45184
C          1.87104       -2.22738       -0.15557
C          0.52922       -1.96519        0.03469
C         -0.16462       -0.75119        0.05640
C          0.38503        0.56526        0.01857
C         -0.55007        1.64430       -0.16868
N         -0.21045        2.92440       -0.52368
C         -1.92718        1.44731       -0.13444
C         -2.39100        0.16974        0.04615
C         -3.71258       -0.32122        0.07261
C         -5.04108        0.20144        0.04191
N         -5.85257        0.99372       -0.09975
C         -3.39355       -1.72655        0.16195
N         -2.31007       -2.03282        0.17564
C         -1.56743       -0.90215        0.10431
C          1.77160        0.86742        0.20393
N          2.07414        2.13278        0.66599
H          4.17853       -2.99394       -0.44869
H          5.00194       -1.46012       -0.33908
H          2.10784       -3.28436       -0.26332
H         -0.05387       -2.88075        0.08200
H         -0.94299        3.56068       -0.81427
H          0.72808        3.08851       -0.87508
H         -2.62517        2.27121       -0.27379
H         -4.05853       -2.58018        0.21573
H          3.03189        2.38331        0.88720
H          1.32455        2.77653        0.89673
