30
Coordinates from ORCA-job ./opt_b97-3c_parallel
N         -4.49805        0.45286       -0.26984
C         -3.18361        0.08221       -0.23015
C         -3.06864       -1.35591       -0.23647
C         -1.65758       -1.13066       -0.15791
N         -0.82127       -2.18079       -0.11498
C          0.50453       -1.93391       -0.04037
N          1.22562       -3.09326       -0.09921
C          1.07050       -0.62837       -0.00004
C          2.47619       -0.39947        0.07922
N          3.36354       -1.38983        0.40867
C          3.08880        0.83718       -0.15756
C          2.40443        2.02119       -0.60408
N          1.41314        2.42695       -0.33110
C          0.57236        1.82812        0.06007
N          0.14533        2.68405        1.03934
C          0.14809        0.44898       -0.03724
C         -1.22203        0.17609       -0.13054
C         -2.24723        1.17860       -0.19205
H         -5.19736       -0.25007       -0.48354
H         -4.72853        1.42553       -0.44052
H         -3.61708       -2.04412        0.39937
H          2.19964       -3.02760       -0.37248
H          0.72871       -3.94231       -0.34413
H          2.99443       -2.22796        0.84555
H          4.31459       -1.12438        0.63873
H          4.16571        0.96182       -0.07040
H          2.82569        2.91719       -1.04427
H          0.44082        3.65360        1.01604
H         -0.68503        2.45444        1.57354
H         -2.23742        2.03296       -0.86153
