30
Coordinates from ORCA-job ./opt_b97-3c_parallel
N         -6.00659        1.43452        0.52049
C         -4.98696        0.95508        0.33246
C         -3.69196        0.35857        0.10855
C         -3.67023       -1.01504       -0.05393
C         -2.58517       -1.82364       -0.34143
C         -1.22508       -1.52139       -0.42524
N         -0.51758       -2.60832       -0.86727
C         -0.57280       -0.28268       -0.18535
C         -1.23939        0.96337       -0.05259
C         -0.47411        2.13761        0.00224
N          0.86562        2.18122       -0.00663
C          1.50492        1.00250       -0.03208
C          2.94016        1.00847        0.02998
C          3.86484        2.09479       -0.09781
N          4.92803        2.48370        0.06100
C          2.87513       -0.43271        0.01207
N          4.15548       -0.91995       -0.03398
C          1.74890       -1.33334        0.08094
C          1.75808       -2.15530        1.25541
N          2.00181       -3.25938        1.42803
C          0.84951       -0.21915       -0.09134
C         -2.60982        1.22563        0.05340
H         -4.62957       -1.52845       -0.00254
H         -2.85865       -2.86311       -0.51952
H         -1.03256       -3.41393       -1.20559
H          0.41686       -2.46541       -1.23289
H         -0.94129        3.11938        0.06868
H          4.30363       -1.89336        0.21133
H          4.91690       -0.27268        0.14512
H         -2.88191        2.27630        0.15985
