32
Coordinates from ORCA-job ./opt_b97-3c_parallel
N         -5.38191        2.44525       -0.10661
C         -4.35067        1.95358       -0.07570
C         -3.04940        1.31557       -0.02908
C         -3.08047       -0.02177        0.33164
C         -2.06729       -0.97992        0.34730
C         -2.56165       -2.21327        0.93011
N         -2.96540       -3.16912        1.40884
C         -0.69128       -0.84465        0.01646
C          0.06300       -2.01220       -0.30522
C         -0.49980       -3.23677       -0.83564
N         -0.92412       -4.20603       -1.26766
C          1.44828       -1.99147       -0.34335
C          2.15900       -0.85949        0.13422
C          3.43201       -0.19229        0.10155
N          4.44844       -1.08254       -0.10415
C          3.70139        1.21323        0.24675
C          4.75945        2.14594        0.46971
N          5.88139        2.31555        0.60706
C          2.29267        1.46235        0.14545
C          1.43136        0.36840        0.05300
C          0.00899        0.39617       -0.00997
C         -0.57924        1.66703       -0.15743
C         -1.90555        2.08102       -0.25777
N         -2.06331        3.41436       -0.55185
H         -4.07401       -0.38780        0.60035
H          2.02208       -2.85884       -0.66465
H          4.25505       -2.07540       -0.03356
H          5.40474       -0.76993        0.02963
H          1.99894        2.50344        0.22278
H          0.09579        2.49846       -0.29944
H         -1.25629        4.02811       -0.54772
H         -2.98801        3.82910       -0.49053
