32
Coordinates from ORCA-job ./opt_b97-3c_parallel
N          4.42453        3.20916        1.29128
C          3.74377        2.38070        0.89590
C          2.87477        1.32972        0.42281
C          3.46744        0.09609        0.22847
C          2.88517       -1.07720       -0.23054
C          3.86717       -2.10274       -0.53264
N          4.64363       -2.90183       -0.78880
C          1.51057       -1.37106       -0.33922
N          1.23227       -2.62353       -0.83980
C          0.40044       -0.51510       -0.10556
C          0.43756        0.90418       -0.14408
C          1.56948        1.69539        0.12401
C         -0.76900        1.62559       -0.37330
N         -0.73934        2.95890       -0.71457
C         -2.02582        1.00730       -0.29691
C         -3.24088        1.76386       -0.51468
N         -4.18835        2.37663       -0.70088
C         -2.05677       -0.34369        0.02866
C         -3.13274       -1.18338        0.32673
C         -4.53255       -0.85923        0.44375
N         -5.64323       -0.61332        0.55335
C         -2.61982       -2.43369        0.61859
C         -1.24376       -2.37406        0.48579
C         -0.88338       -1.07950        0.09427
H          4.54451        0.06378        0.39999
H          0.29430       -2.81201       -1.17628
H          1.99227       -3.17251       -1.22683
H          1.40963        2.76455        0.23507
H          0.10885        3.31703       -1.13972
H         -1.61197        3.39262       -0.99913
H         -3.19207       -3.30135        0.94019
H         -0.57902       -3.19850        0.72313
