24
Coordinates from ORCA-job ./opt_b97-3c_parallel
N         -5.32714       -0.81599       -0.02995
C         -4.19599       -0.64920       -0.02687
C         -2.77401       -0.43191       -0.01079
C         -2.34932        0.94605       -0.01419
N         -1.27819        1.21928        0.00521
C         -0.01714        0.72324        0.01625
C          1.09474        1.59697        0.03382
C          0.92130        3.03059        0.05736
N          0.79976        4.16699        0.07926
C          2.40274        1.10146        0.02721
C          2.57866       -0.27243        0.00101
C          3.75018       -1.01131       -0.02017
C          3.38429       -2.35317       -0.04403
C          1.99486       -2.43289       -0.03528
C          1.50600       -1.13407       -0.00873
C          0.18955       -0.67698        0.00391
N         -0.83775       -1.55736        0.00504
C         -1.94260       -1.60953        0.01651
H         -2.86008        1.80930       -0.42410
H          3.25997        1.77148        0.03882
H          4.76413       -0.61844       -0.02109
H          4.06863       -3.19774       -0.06766
H          1.40354       -3.34528       -0.05085
H         -2.16885       -2.58504        0.42988
