24
Coordinates from ORCA-job ./opt_b97-3c_parallel
N          3.65904        1.19887       -0.04698
C          2.66936        0.71359       -0.08173
N          1.88400        1.83598       -0.07929
C          0.54795        1.64581       -0.06955
C         -0.19900        0.39813        0.00156
C          0.28217       -0.90507        0.02850
C         -0.64521       -2.00597        0.12074
N         -2.01695       -1.78474        0.18497
C         -2.49977       -0.48283        0.15250
C         -3.77891       -0.01501        0.20607
C         -3.55566        1.34061        0.12761
N         -2.23689        1.75833        0.04138
C         -1.56304        0.57297        0.05714
C          1.65113       -1.34534       -0.03272
N          2.34441       -2.20493       -0.04609
N          2.68253       -0.57261       -0.10140
H          4.43881        0.61962        0.26187
H          4.00082        2.15916       -0.05170
H          0.30096        2.71845       -0.09197
H         -0.91185       -3.07210        0.17808
H         -4.57226       -0.48602       -0.36917
H         -4.48345        1.93253        0.15074
H          3.18542       -2.76786       -0.16969
H          1.55716       -2.83905       -0.17699
