26
Coordinates from ORCA-job ./opt_b97-3c_parallel
N          5.61150       -0.58373        0.52838
C          4.54378       -0.21492        0.35584
C          3.20017        0.25807        0.15524
C          2.83175        1.58212       -0.02283
C          1.45272        1.59150       -0.13014
C          0.60610        2.67170       -0.28582
N         -0.72831        2.48670       -0.31535
C         -1.25285        1.23312       -0.21446
C         -2.65317        1.20085       -0.21337
C         -3.46484        0.02930       -0.01564
N         -4.73418        0.09040        0.48640
N         -3.36473       -1.06671       -0.07341
C         -2.38177       -1.55289       -0.20265
C         -0.98049       -1.23484       -0.10206
C         -0.28074       -2.49299       -0.18766
N          0.25347       -3.50060       -0.26959
C         -0.43369        0.06796       -0.10966
C          0.95566        0.30631       -0.03940
C          2.05696       -0.53290        0.14817
H          3.49391        2.44425       -0.04864
H          0.96837        3.69536       -0.36080
H         -3.22595        2.12213       -0.30246
H         -5.29766       -0.75023        0.55044
H         -5.19081        0.98722        0.60904
H         -2.86103       -2.52130       -0.30560
H          2.06364       -1.60541        0.30048
