27
Coordinates from ORCA-job ./opt_b97-3c_parallel
N          4.01415        3.24723        0.07002
C          3.28612        2.36601        0.05546
C          2.34757        1.28607        0.01321
C          2.98690        0.12749       -0.40096
C          2.34068       -1.14672       -0.37902
C          3.17525       -2.20503       -0.86477
N          4.03359       -2.91556       -0.60529
C          1.14333       -1.43638        0.18259
N          1.06650       -2.24375        1.25554
C         -0.01741       -0.78967       -0.07690
C         -1.24713       -1.49456       -0.33028
C         -2.58960       -1.01365       -0.20732
C         -3.66375       -1.95166       -0.30101
N         -4.23685       -2.88972       -0.61404
C         -2.59469        0.40746       -0.04092
N         -3.69078        1.14418        0.04496
C         -3.12037        2.39728        0.19658
N         -1.81558        2.46422        0.20552
C         -1.44287        1.23078        0.07314
C         -0.18088        0.64234        0.06086
C          0.93991        1.55022        0.24909
H          4.03215        0.15872       -0.70895
H          1.80796       -2.92192        1.42549
H          0.18288       -2.69415        1.48658
H         -1.08660       -2.39773       -0.91460
H         -3.78740        3.26662        0.29698
H          0.70450        2.59024        0.45572
