28
Coordinates from ORCA-job ./opt_b97-3c_parallel
N          4.22795       -3.04427       -0.16603
C          3.59993       -2.09072       -0.11020
C          2.80115       -0.88964       -0.05658
C          3.50373        0.30251       -0.06070
C          3.00309        1.58987       -0.00496
C          1.68562        2.04130        0.00947
N          1.63065        3.41042        0.09466
C          0.48288        1.29173       -0.03143
C         -0.71871        2.04516       -0.11416
C         -1.98271        1.46937       -0.11622
C         -2.06036        0.09848       -0.01210
C         -3.18600       -0.70868        0.04249
C         -4.56008       -0.28106       -0.00323
N         -5.64854        0.06560       -0.05003
C         -2.74702       -2.01683        0.15907
C         -1.35698       -2.00489        0.16477
C         -0.92457       -0.67907        0.05411
C          0.37611       -0.13036        0.01207
C          1.42311       -1.06438        0.00438
H          4.58935        0.23061       -0.09415
H          3.77593        2.35625        0.01642
H          0.75396        3.83676        0.37251
H          2.48128        3.90715        0.33148
H         -0.71400        3.12723       -0.19414
H         -2.87775        2.08461       -0.18451
H         -3.37820       -2.89838        0.23740
H         -0.74451       -2.89680        0.25699
H          1.14004       -2.11032        0.01656
