29
Coordinates from ORCA-job ./opt_b97-3c_parallel
N         -5.09642        0.37918        0.67145
C         -3.98339        0.21129        0.47203
C         -2.57082        0.01473        0.21469
C         -2.18690       -1.36730        0.03333
N         -2.97240       -2.31396       -0.57129
N         -1.27552       -1.98362        0.11870
C         -0.26785       -1.54149        0.21110
C          0.42030       -0.29237        0.00123
C         -0.26054        0.94628       -0.02249
C          0.53202        2.09788       -0.20683
N          1.87333        2.08820       -0.36539
C          2.48697        0.89109       -0.33197
C          3.90823        0.81878       -0.47328
C          3.77263       -0.59277       -0.19804
N          5.02481       -1.09150        0.03143
C          2.63273       -1.47635       -0.10693
C          1.81254       -0.29939       -0.14848
C         -1.66178        1.09118        0.14580
N         -2.18485        2.35832        0.25960
H         -3.95747       -2.11959       -0.71666
H         -2.68126       -3.28497       -0.56381
H          0.13991       -2.54011        0.32171
H          0.10085        3.09475       -0.25087
H          4.62575        1.48882       -0.00817
H          5.83093       -0.51166       -0.17729
H          5.15651       -2.09509        0.09000
H          2.54127       -2.29408        0.60060
H         -3.15362        2.45427        0.54617
H         -1.55600        3.12505        0.46941
