30
Coordinates from ORCA-job ./opt_b97-3c_parallel
N         -3.43641        2.12177        1.10574
C         -2.80949        1.27483        0.66035
C         -2.02994        0.18271        0.11037
C         -2.89623       -0.97991        0.10844
N         -4.21130       -0.98852       -0.28885
N         -2.84392       -2.08144        0.11480
C         -1.91801       -2.64808       -0.07872
C         -0.51226       -2.36725       -0.04550
C          0.08040       -1.09581       -0.04394
C         -0.61495        0.15067       -0.02372
C          0.16220        1.34988       -0.11305
C         -0.42503        2.65542       -0.34772
N         -0.86401        3.69125       -0.55143
C          1.57028        1.30582       -0.09267
N          2.35021        2.43356       -0.16198
C          2.18820        0.06664       -0.01617
C          3.57917       -0.24448        0.04800
N          4.86477        0.18411        0.19813
N          3.07151       -1.25337        0.01510
C          2.40385       -2.16554        0.00535
C          1.47848       -1.07676       -0.02523
H         -4.71548       -0.10908       -0.31780
H         -4.76208       -1.82965       -0.15503
H         -2.42772       -3.46808       -0.57279
H          0.06729       -3.28703       -0.05066
H          3.33910        2.32259       -0.35766
H          1.91050        3.31158       -0.41806
H          5.58874       -0.49178        0.41357
H          5.03449        1.15041        0.45360
H          2.45313       -2.99718        0.69797
