27
Coordinates from ORCA-job ./opt_b97-3c_parallel
N          3.49652       -3.11032        0.02166
C          2.98027       -2.09312        0.03056
C          2.28139       -0.83555        0.03368
C          0.84592       -0.92868        0.06977
C         -0.09635        0.16299        0.05292
C          0.19269        1.51185        0.00657
C          1.39571        2.17585       -0.01233
C          2.68173        1.69785       -0.00585
C          3.07825        0.30513        0.00715
N          4.18585        0.37982       -0.00947
C         -0.92475        2.42024       -0.02130
N         -2.27064        2.09465       -0.01452
C         -2.48447        0.76982        0.04067
N         -3.70016        0.14276        0.06181
C         -3.38456       -1.21044        0.12530
N         -4.30138       -1.83252        0.13769
C         -2.03445       -1.49573        0.16524
C         -1.49176       -0.24166        0.08437
H          0.45849       -1.94110        0.09940
H          1.34413        3.26214       -0.03546
H          3.44779        2.47909       -0.02177
H          4.92912        1.07700       -0.01311
H          4.65146       -0.52727       -0.01760
H         -1.00074        3.51861       -0.05671
H         -5.29005       -1.57476        0.11058
H         -4.29697       -2.85344        0.18480
H         -1.62635       -2.34268       -0.38263
