27
Coordinates from ORCA-job ./opt_b97-3c_parallel
N          4.78358        0.67910        0.15824
C          3.66704        0.91738        0.10425
C          2.26341        1.23905        0.04741
C          1.77492        2.53962        0.04910
C          0.38947        2.48557        0.01217
C          0.02720        1.14624       -0.00586
C          1.16809        0.37171        0.00939
C          1.07947       -1.02296       -0.01779
C          2.26776       -1.84933       -0.03828
N          3.19462       -2.51809       -0.05971
C         -0.20413       -1.60918       -0.03223
N         -0.29594       -2.98009       -0.07663
C         -1.38079       -0.81424       -0.00457
C         -2.64214       -1.44952        0.05810
C         -3.88680       -0.82204        0.15129
C         -4.08441        0.60130        0.18681
N         -3.47970        1.50199       -0.01027
C         -2.37914        1.48452       -0.07078
C         -1.24855        0.59284       -0.02282
H          2.37532        3.44595        0.08202
H         -0.28235        3.34120        0.01210
H         -1.18269       -3.39656       -0.33514
H          0.54676       -3.51006       -0.27465
H         -2.69045       -2.53417        0.07042
H         -4.79469       -1.41597        0.22249
H         -5.01716        1.14845        0.26589
H         -2.50240        2.37691       -0.67582
