30
Coordinates from ORCA-job ./opt_b97-3c_parallel
N         -5.86912        0.20285        0.40319
C         -4.73918        0.37529        0.40213
C         -3.36679        0.17545        0.05612
C         -2.57709       -1.02894        0.08456
N         -3.08343       -2.29819        0.01937
C         -1.15009       -1.19347        0.16702
C         -0.02797       -2.01735       -0.14041
C          1.26318       -1.50387       -0.16214
C          2.25476       -2.48539       -0.54408
N          3.01725       -3.27488       -0.86428
C          1.50327       -0.10777       -0.00876
C          2.82359        0.42335        0.17648
C          3.91287       -0.41144        0.63725
N          4.78157       -1.04518        1.02581
C          3.24287        1.76829        0.11646
C          2.49645        2.91674       -0.14615
C          1.08115        2.99599       -0.32696
N          0.53071        2.06212       -0.20804
C          0.36707        0.74103       -0.06743
C         -0.94371        0.21064       -0.00872
C         -2.14682        0.92441       -0.05682
N         -2.29095        2.28101       -0.17833
H         -4.08496       -2.42800        0.12119
H         -2.47471       -3.08185        0.22782
H         -0.22246       -3.07132       -0.32967
H          4.30073        1.96374        0.29105
H          2.98421        3.88807       -0.17998
H          0.47598        3.86848       -0.54260
H         -3.19785        2.69253        0.01342
H         -1.46811        2.86198       -0.05915
