26
Coordinates from ORCA-job ./opt_b97-3c_parallel
N          3.80157       -2.37919        1.17758
C          3.10214       -1.54312        0.83495
C          2.19053       -0.52639        0.39199
C          0.79992       -0.73248        0.67801
C         -0.09665       -0.09871       -0.23878
C         -0.29166        1.26938        0.13651
C          0.74896        2.22763       -0.08185
C          2.03429        1.88995       -0.46616
C          2.68122        0.58879       -0.29060
N          3.72400        0.76548       -0.62112
C         -1.61290        1.78714        0.42506
N         -2.28633        2.62690        0.65974
N         -2.67342        0.95492        0.36299
C         -2.53749       -0.32814       -0.01185
N         -3.51391       -1.27857       -0.15822
C         -2.84656       -2.42300       -0.58950
N         -1.47674       -2.19977       -0.71409
C         -1.29313       -0.88734       -0.36249
H          0.52729       -1.60931        1.26083
H          0.46098        3.27471       -0.05151
H          2.63395        2.72938       -0.82574
H          4.32640       -0.05651       -0.58511
H          4.34526        1.57296       -0.63810
H         -3.07810        3.22197        0.41817
H         -1.58028        3.23903        1.06682
H         -3.39702       -3.35730       -0.78315
