25
Coordinates from ORCA-job ./opt_b97-3c_parallel
N         -4.01368        2.03633        0.01306
C         -2.95669        1.61059       -0.07884
C         -2.03177        0.51025       -0.04121
C         -2.83399       -0.63709       -0.00056
N         -3.81844       -1.15502        0.01549
N         -2.44108       -1.97184        0.02854
C         -1.09989       -2.27278        0.00127
N          0.04467       -1.69054       -0.05305
C          0.37348       -0.43346       -0.02857
C         -0.56633        0.62781       -0.01837
N         -0.15147        1.93777        0.00113
C          1.16054        2.30088        0.00540
C          2.12822        1.31530       -0.01802
C          3.56054        1.23674        0.00200
N          4.07150       -0.01531        0.00809
C          2.94067       -0.82352       -0.00834
N          3.37634       -1.83999       -0.00029
C          1.75504       -0.02936       -0.02631
H         -4.32610       -0.26625        0.02460
H         -4.54699       -1.87108        0.01308
H         -1.05815       -3.37413        0.02117
H          1.39101        3.36665        0.02372
H          4.16884        2.15600        0.00796
H          2.75811       -2.65020       -0.00961
H          4.32461       -2.22017       -0.00621
