27
Coordinates from ORCA-job ./opt_b97-3c_parallel
N         -5.36920        0.69662        0.00069
C         -4.33862        0.20239        0.00030
C         -3.03342       -0.40614       -0.00009
C         -2.77372       -1.76795       -0.00002
C         -1.39457       -1.94512       -0.00041
C         -0.79226       -0.68531       -0.00074
C         -1.81085        0.24689       -0.00055
C         -1.54767        1.60327       -0.00075
C         -0.21416        1.99824       -0.00128
C          0.84939        1.07172       -0.00133
C          2.11016        1.67762       -0.00164
C          3.38046        1.11760       -0.00003
C          3.74542       -0.22101        0.00203
N          5.08641       -0.48675        0.00681
C          2.89562       -1.31849        0.00091
C          1.50672       -1.35731       -0.00062
C          0.56762       -0.31704       -0.00095
H         -3.51857       -2.56001        0.00033
H         -0.89993       -2.91182       -0.00041
H         -2.34957        2.33783       -0.00049
H         -0.00957        3.06676       -0.00138
H          2.12390        2.76555       -0.00253
H          4.19658        1.83786        0.00025
H          5.41689       -1.44520       -0.00882
H          5.75694        0.27378       -0.00905
H          3.37717       -2.29467        0.00191
H          1.12515       -2.37145       -0.00075
