34
Coordinates from ORCA-job ./opt_b97-3c_parallel
N         -5.24737       -1.27726        0.67271
C         -4.17074       -0.95421        0.46025
C         -2.80172       -0.53302        0.17554
C         -2.52330        0.83431        0.37236
N         -3.50035        1.59988        0.98367
C         -1.42958        1.52348       -0.18000
C         -1.55793        2.97217       -0.29388
N         -1.66303        4.10625       -0.39399
C         -0.20744        0.96946       -0.60076
N          0.60884        1.77021       -1.36835
C          0.28443       -0.30913       -0.28161
C         -0.50355       -1.48604       -0.24019
C          0.17542       -2.73177       -0.17638
C          1.55613       -2.83830       -0.07378
C          2.30494       -1.68311       -0.00848
N          3.63734       -1.61536        0.18070
C          3.80415       -0.51018        0.24963
N          5.09742       -0.18485        0.55412
C          2.73585        0.46030        0.10741
C          3.04734        1.83011        0.39781
N          3.04103        2.95064        0.62376
C          1.68165       -0.47345       -0.11969
C         -1.91594       -1.53850       -0.27235
N         -2.48828       -2.74680       -0.61618
H         -3.43071        2.61202        0.95770
H         -4.39634        1.18025        1.20911
H          1.54266        1.45695       -1.60776
H          0.38395        2.75420       -1.47772
H         -0.35751       -3.67783       -0.14762
H          2.03140       -3.81316        0.00874
H          5.33530        0.77160        0.79367
H          5.75546       -0.91754        0.79486
H         -3.49307       -2.78178       -0.75564
H         -1.92293       -3.42255       -1.11781
