28
Coordinates from ORCA-job ./opt_b97-3c_parallel
N          3.91906       -1.87512        0.40645
C          2.81622       -1.58554        0.32160
C          1.41297       -1.24693        0.23372
C          0.78292       -2.45721        0.70259
N         -0.17111       -2.94825        0.43867
C         -1.04875       -2.38205        0.08389
N         -1.42306       -3.17225       -0.97217
C         -1.48428       -1.01633        0.27165
C         -2.91914       -1.08262        0.43282
N         -4.05389       -1.16533        0.55037
C         -0.64833        0.12675        0.18634
C          0.77592        0.00910        0.03595
C          1.53525        1.18044       -0.26581
C          2.94056        1.20520       -0.60172
N          4.04746        1.25598       -0.88101
C          0.94249        2.43989       -0.29188
C         -0.40169        2.54249       -0.01841
C         -1.15938        3.69769        0.04614
C         -2.45417        3.30849        0.33737
C         -2.47911        1.92359        0.43843
C         -1.18833        1.43349        0.21234
H          1.21950       -3.42343        0.93848
H         -2.26725       -2.94289       -1.48508
H         -1.10588       -4.13502       -1.00345
H          1.52514        3.33420       -0.50791
H         -0.80621        4.71628       -0.09704
H         -3.30479        3.97265        0.47035
H         -3.37686        1.37089        0.68085
