28
Coordinates from ORCA-job ./opt_b97-3c_parallel
N          4.28309        3.09673        0.11007
C          3.61978        2.16704        0.06381
C          2.77552        1.00315       -0.00857
C          3.45294       -0.23661       -0.27960
N          3.18660       -1.30941       -0.25203
C          2.18342       -1.72791       -0.06170
N          2.59678       -2.85106        0.60198
C          0.80708       -1.29305       -0.10279
C         -0.18822       -2.27490       -0.24048
C         -1.53718       -1.93042       -0.23999
C         -1.85093       -0.58824       -0.09311
C         -3.10369        0.06206       -0.05272
C         -4.41101       -0.50963       -0.13401
N         -5.44374       -0.93983       -0.36813
C         -2.58975        1.40626        0.09716
N         -3.42426        2.48142        0.19572
N         -1.48487        1.61250        0.13842
C         -0.91017        0.39303        0.02863
C          0.45607        0.07376        0.01203
C          1.38753        1.12575        0.10035
H          4.46368       -0.38975       -0.64040
H          3.57020       -3.13284        0.56422
H          1.91463       -3.52502        0.93011
H          0.08857       -3.32181       -0.34457
H         -2.31193       -2.68631       -0.34472
H         -4.42023        2.36680        0.04360
H         -3.04000        3.41967        0.18741
H          1.00632        2.13551        0.23739
