34
Coordinates from ORCA-job ./opt_b97-3c_parallel
N         -5.42068       -1.22165       -0.64967
C         -4.41592       -0.69004       -0.52087
C         -3.07004       -0.22212       -0.37681
C         -2.84423        1.12870        0.06733
N         -3.75301        2.10715        0.34862
C         -1.41853        1.23639        0.24035
C         -0.52463        2.36093        0.33156
N         -1.04274        3.62086        0.42610
C          0.84486        2.22487        0.18181
C          1.45367        0.97469        0.04134
C          2.85552        0.93310       -0.10606
C          3.72558        2.08895       -0.12149
N          4.39866        3.01416       -0.12417
C          3.62168       -0.25510       -0.37066
N          3.40697       -1.33867       -0.35064
C          2.52221       -1.87424        0.03682
N          2.85563       -3.18144       -0.21715
C          1.17283       -1.46666        0.35746
C          0.46709       -2.47263        1.11925
N         -0.07878       -3.27075        1.73278
C          0.63918       -0.17741        0.15407
C         -0.81894       -0.06710        0.13249
C         -1.84557       -0.97608       -0.31694
N         -1.89216       -2.25105       -0.81315
H         -4.74085        1.86246        0.35461
H         -3.45595        2.88838        0.92126
H         -1.98683        3.76265        0.08256
H         -0.40185        4.40252        0.34424
H          1.43809        3.13597        0.19550
H          4.60141       -0.32960       -0.83302
H          3.81895       -3.44215       -0.39070
H          2.22794       -3.91160        0.10875
H         -2.80615       -2.66981       -0.94960
H         -1.13968       -2.88125       -0.55358
