28
Coordinates from ORCA-job ./opt_b97-3c_parallel
N         -2.64247        4.05865        0.45618
C         -1.97695        3.14241        0.31046
C         -1.18909        1.96644        0.13590
C          0.23956        1.99317       -0.01992
C          0.98621        0.85062       -0.15401
C          2.33791        1.05441       -0.24566
N          3.09636        1.79060       -0.56856
N          3.46074        0.36279       -0.00011
C          3.34774       -0.90917        0.42060
N          2.35457       -1.72586        0.59300
C          1.24266       -1.70999       -0.07302
N          1.19045       -2.80042       -0.23837
C          0.40624       -0.53099       -0.08846
C         -1.03539       -0.58245        0.01038
N         -1.73304       -1.77382       -0.03358
C         -3.09260       -1.55785        0.04633
N         -3.78105       -2.41937        0.01455
C         -2.97011       -0.20390        0.11244
C         -1.76152        0.65009        0.10492
H          0.70948        2.97317        0.00610
H          4.06479        2.10420       -0.62282
H          2.57157        2.36410       -1.22560
H          4.40205       -1.19730        0.54876
H          0.47353       -3.25281       -0.80027
H          1.95434       -3.47112       -0.15543
H         -3.58181       -3.41556       -0.07494
H         -4.79479       -2.34012        0.09402
H         -3.84562        0.43986        0.17455
