25
Coordinates from ORCA-job ./opt_b97-3c_parallel
N          4.23224        0.47729        0.01473
C          2.98246       -0.06585       -0.02027
N          2.32645       -0.98441       -0.03441
C          1.52254       -1.77866       -0.02469
C          0.76074       -0.56665       -0.01824
C          1.65406        0.44894       -0.02245
C          1.24760        1.77210       -0.02605
C         -0.12039        2.02520       -0.02032
C         -1.07455        0.98732       -0.00941
C         -2.39644        1.44426        0.00108
C         -3.58955        0.73455        0.01493
C         -3.78194       -0.63688        0.02099
C         -2.81851       -1.63205        0.01431
C         -1.43489       -1.50784        0.00096
C         -0.63264       -0.35949       -0.00914
H          4.33948        1.46770        0.20239
H          5.03436       -0.12478        0.16114
H          1.19845       -2.81171       -0.01692
H          1.97117        2.58311       -0.03288
H         -0.44008        3.06516       -0.02286
H         -2.53666        2.52357       -0.00081
H         -4.49519        1.33626        0.02213
H         -4.81609       -0.97354        0.03222
H         -3.19829       -2.65115        0.02100
H         -0.92725       -2.46657       -0.00044
