27
Coordinates from ORCA-job ./opt_b97-3c_parallel
N         -3.40312        3.34252        0.00367
C         -2.56490        2.56593        0.02100
C         -1.51080        1.58291        0.02713
C         -0.17435        1.98164        0.08317
C          0.89009        1.05132        0.07261
C          2.22052        1.54043        0.11913
N          2.46511        2.87175        0.32996
C          3.36719        0.75710       -0.05041
C          3.36444       -0.64636       -0.36197
N          2.65781       -1.48238       -0.22882
C          1.60180       -1.34147        0.05506
C          0.57509       -0.33074        0.01782
C         -0.77206       -0.71482       -0.03007
C         -1.37558       -1.97395       -0.07918
C         -0.74475       -3.26914       -0.09349
N         -0.25464       -4.30192       -0.09377
C         -2.75272       -1.78675       -0.10769
C         -3.01005       -0.42381       -0.07732
C         -1.78386        0.22373       -0.02748
H          0.02158        3.05036        0.11493
H          3.41545        3.15787        0.53827
H          1.71353        3.44894        0.68985
H          4.36198        1.19490       -0.00231
H          4.14106       -1.22879       -0.84465
H          1.70283       -2.17360        0.74431
H         -3.50210       -2.57405       -0.14438
H         -3.99197        0.04400       -0.08553
