24
Coordinates from ORCA-job ./opt_b97-3c_parallel
N          2.92207       -1.70679        0.39736
C          2.07781       -1.02060        0.21802
N          2.99951       -0.09583       -0.10185
C          2.61749        1.14655       -0.42918
N          1.52869        1.85009       -0.45460
C          0.54751        1.52275        0.32682
N          0.40412        2.55041        0.70876
C         -0.09372        0.23655        0.17021
C          0.63675       -0.95408        0.08492
C         -0.04153       -2.14606       -0.14313
C         -1.46788       -2.22249       -0.30078
C         -2.18374       -0.98210       -0.17047
N         -3.52966       -0.80945       -0.24403
C         -3.53753        0.51956       -0.03444
N         -2.43079        1.19412        0.15032
C         -1.53821        0.26010        0.06736
H          3.86080       -1.83837        0.76804
H          2.28130       -2.17233        1.03600
H          3.55643        1.68078       -0.63642
H         -0.58361        2.35176        0.56130
H          0.57146        3.48981        0.35372
H          0.49728       -3.08730       -0.22263
H         -1.99689       -3.15150       -0.48683
H         -4.50483        1.04389       -0.01293
