28
Coordinates from ORCA-job ./opt_b97-3c_parallel
N         -3.97579        1.65769        0.66259
C         -3.41122        0.78733        0.18414
C         -2.25619       -0.03336       -0.03353
C         -2.85387       -1.34950       -0.00017
N         -2.22075       -2.27351       -0.04972
C         -0.96625       -1.78321       -0.08931
C          0.18952       -2.53185       -0.09280
C          1.41618       -1.88089       -0.03149
N          2.50716       -2.71263       -0.02306
C          1.51203       -0.45975        0.01578
C          2.80969        0.04359        0.23568
C          3.27184        1.34129        0.37945
C          2.58202        2.52316        0.21786
C          1.26001        2.67976       -0.14500
C          0.26021        1.72323       -0.31131
N         -0.88869        2.30637       -0.77311
C          0.32237        0.31619       -0.13199
C         -0.88897       -0.42163       -0.12256
H         -3.88708       -1.66317        0.11128
H          0.13274       -3.61871       -0.10058
H          2.36680       -3.68951       -0.25640
H          3.41780       -2.31269       -0.21890
H          3.61733       -0.66519        0.38266
H          4.32697        1.44338        0.62338
H          3.15810        3.43694        0.34299
H          0.97032        3.71831       -0.30245
H         -1.58864        1.71234       -1.20260
H         -0.84134        3.26797       -1.09198
