25
Coordinates from ORCA-job ./opt_b97-3c_parallel
N         -2.77536       -3.31491        0.08457
C         -1.96775       -2.52365       -0.08703
C         -0.96449       -1.49809       -0.03100
C          0.25343       -2.16316       -0.06226
C          1.44332       -1.36848       -0.01147
C          2.75375       -1.71715       -0.04363
C          3.48097       -0.59951        0.00167
C          2.67356        0.51303        0.06492
N          3.28598        1.43138        0.07539
C          1.32722        0.03028        0.07224
C          0.06942        0.72530        0.10235
C          0.09459        2.17565        0.20856
C         -1.04280        3.07202        0.14249
N         -2.32824        2.75501       -0.08502
C         -2.78382        1.50774       -0.12684
N         -2.31643        0.33275        0.08268
C         -1.10907       -0.11563        0.04309
H          0.36466       -3.24385       -0.12492
H          3.14397       -2.73077       -0.09309
H          4.57177       -0.59409       -0.00544
H          2.56227        1.83371       -0.51679
H          4.17698        1.62091       -0.37899
H          1.05356        2.66425        0.32384
H         -0.76373        4.13367        0.21101
H         -3.85997        1.55173       -0.35271
