22
Coordinates from ORCA-job ./opt_b97-3c_parallel
N          3.52294        2.69429       -0.08144
C          2.90427        1.73289       -0.08263
C          1.74439        0.89798       -0.02698
C          0.45984        1.54853       -0.03745
C         -0.72615        0.86669        0.00990
C         -1.85641        1.60720        0.00278
N         -3.17740        1.47926       -0.01182
C         -3.77135        0.27713       -0.00393
N         -3.23518       -1.00731        0.05201
C         -1.88830       -1.36445        0.09055
C         -0.73757       -0.49607        0.06076
C          0.49573       -1.24421        0.08016
C          0.68515       -2.59578        0.12759
C          2.06339       -2.55686        0.10987
N          2.73375       -1.34343        0.05174
C          1.68381       -0.47865        0.03404
H          0.44502        2.63468       -0.08633
H         -2.15712        2.66538       -0.00416
H         -4.87124        0.25149       -0.02690
H         -2.31457       -2.37811        0.12541
H          0.14476       -3.26174       -0.54114
H          2.83725       -3.33919        0.12043
