23
Coordinates from ORCA-job ./opt_b97-3c_parallel
N         -1.75218       -3.53493       -0.13987
C         -2.21937       -2.50219        0.00485
C         -2.08837       -1.08078        0.04878
C         -3.32247       -0.34391        0.19865
N         -3.30464        0.78113        0.24300
C         -2.00880        1.14044        0.13627
N         -1.47797        2.38508        0.14744
C         -0.12895        2.49385        0.03902
C          0.72497        1.39037       -0.08173
C          2.16044        1.57974       -0.16415
N          2.94538        0.78492       -0.15317
C          2.89589       -0.33267       -0.14474
N          4.09929       -0.86856        0.20368
N          2.10590       -1.12443       -0.18921
C          0.98998       -1.08910       -0.20365
C          0.16442        0.09997       -0.09949
C         -1.21891        0.02990        0.01348
H         -4.33966       -0.70696        0.28520
H          0.26336        3.50865        0.06069
H          2.71464        2.47975       -0.40310
H          4.15577       -1.85002        0.44933
H          4.85001       -0.25687        0.50228
H          0.76797       -2.03010       -0.69340
