27
Coordinates from ORCA-job ./opt_b97-3c_parallel
N          5.17512        0.58528        0.14229
C          4.09209        0.22753        0.06983
C          2.72147       -0.22018       -0.00439
C          2.53912       -1.58876       -0.04508
C          1.35061       -2.28705       -0.10865
C          0.03314       -1.83214       -0.10307
N         -0.82665       -2.89727       -0.18133
C         -0.45655       -0.49620       -0.05339
C          0.33892        0.69379       -0.07218
C          1.74624        0.76914       -0.04135
C         -0.32921        1.95584       -0.10520
N          0.30675        3.16414       -0.20171
N         -1.66258        2.12269       -0.06182
C         -2.35708        0.99068        0.00992
C         -3.75646        0.85956        0.09812
C         -3.89925       -0.57360        0.15394
N         -2.91553       -1.11927        0.10598
C         -1.85943       -0.27194        0.01238
H          3.43742       -2.20435       -0.03325
H          1.48987       -3.36682       -0.15449
H         -1.81904       -2.74438       -0.04163
H         -0.46455       -3.83644       -0.06393
H          2.18681        1.76077       -0.01605
H          1.27364        3.18020       -0.50423
H         -0.26017        3.98070       -0.40265
H         -4.53648        1.61253        0.13909
H         -4.79769       -1.17255        0.24059
