29
Coordinates from ORCA-job ./opt_b97-3c_parallel
N          3.82236        2.77085       -0.02122
C          2.69498        2.59668        0.04512
C          1.71219        1.55702        0.04066
C          0.37069        2.07398        0.02454
C         -0.76180        1.16707        0.01849
C         -1.95120        1.86477        0.00773
C         -3.29446        1.38417       -0.00347
C         -3.72710        0.01820       -0.01215
N         -4.82865       -0.06691       -0.02674
C         -2.93246       -1.17801       -0.00256
C         -1.54411       -1.29711        0.01737
N         -1.41913       -2.40160        0.02146
C         -0.51518       -0.26389        0.02672
C          0.82191       -0.65715        0.04481
N          1.33839       -1.92790        0.06171
C          2.70853       -1.72513        0.07854
N          3.34917       -2.62235        0.09819
N          3.05118       -0.46461        0.07134
C          1.93864        0.20339        0.05285
H          0.21669        3.15090        0.01728
H         -1.92143        2.95099        0.00756
H         -4.05743        2.16183       -0.00959
H         -5.46942        0.72337       -0.07839
H         -5.40326       -0.90634       -0.07788
H         -3.58021       -2.06543       -0.01152
H         -2.22519       -3.02541        0.05172
H         -0.60919       -3.01462       -0.02833
H          3.11873       -3.61418        0.15321
H          4.36772       -2.56424        0.09559
