28
Coordinates from ORCA-job ./opt_b97-3c_parallel
N          4.51821       -2.05006        0.08525
C          3.60996       -1.35734        0.09353
C          2.44649       -0.51693        0.07851
C          2.59970        0.91832        0.07257
N          3.42428        1.65314        0.08463
C          1.23539        1.27889        0.04046
C          0.67344        2.59477        0.02689
C         -0.71021        2.68237        0.00154
C         -1.55422        1.50567       -0.00163
N         -2.93669        1.70955       -0.02525
C         -3.78759        0.62131       -0.01566
N         -3.97134       -0.74670        0.01307
C         -2.76423       -1.41413        0.04231
N         -2.96497       -2.49726        0.07281
N         -1.58219       -0.88650        0.02866
C         -0.94198        0.24188        0.01914
C          0.44866        0.10844        0.03303
C          1.17055       -1.06431        0.05140
N          0.93710       -2.39116       -0.01805
H          4.32835        1.18257        0.06034
H          3.61940        2.65019        0.16033
H          1.27115        3.50380        0.03407
H         -1.18095        3.66369       -0.01091
H         -4.68363        1.26109       -0.04348
H         -2.32389       -3.23560        0.36068
H         -3.88616       -2.92751        0.00142
H          0.35536       -2.76203       -0.76544
H          1.72663       -3.03189        0.07660
