30
Coordinates from ORCA-job ./opt_b97-3c_parallel
N          5.88774        0.30664       -0.33965
C          5.01332       -0.39312       -0.10997
C          3.60865       -0.28636        0.12978
C          2.70212       -1.39659        0.12904
C          1.35249       -1.09385        0.14270
C          0.36580       -2.06360        0.08858
C         -0.98240       -1.70295        0.03137
C         -1.89598       -2.82529       -0.02135
N         -2.60699       -3.72005       -0.05544
C         -1.40913       -0.34418        0.04476
C         -2.78824       -0.09146       -0.09253
C         -3.50601        1.10629       -0.09579
N         -4.85179        1.00335       -0.31530
C         -3.03709        2.39642        0.11092
C         -1.73422        2.80438        0.33025
C         -0.58408        2.03368        0.34202
C         -0.41849        0.65686        0.18450
C          0.97250        0.27733        0.19196
C          2.38853        0.47085       -0.00860
N          2.66946        1.71879       -0.49578
H          3.03687       -2.43086        0.08809
H          0.64965       -3.11516        0.06858
H         -3.43713       -0.94864       -0.24536
H         -5.43960        1.82332       -0.21357
H         -5.28629        0.08839       -0.35682
H         -3.77574        3.19506        0.10087
H         -1.59128        3.87086        0.48404
H          0.32343        2.61104        0.50158
H          1.93052        2.41047       -0.55790
H          3.63495        2.02682       -0.55235
