27
Coordinates from ORCA-job ./opt_b97-3c_parallel
N         -4.63754       -1.45846       -0.01257
C         -3.52760       -1.18610       -0.00093
C         -2.12934       -0.83603        0.02890
C         -1.15669       -1.82638       -0.03425
C          0.20574       -1.50634        0.00052
C          1.11236       -2.62689       -0.02101
N          2.12718       -2.79984       -0.41877
C          2.91860       -2.03747       -0.52287
C          3.06965       -0.77198        0.14585
C          2.01729        0.11397        0.40075
N          2.37914        1.22418        1.10917
C          0.65240       -0.16533        0.12781
C         -0.35507        0.83061        0.07030
C         -0.31817        2.22832       -0.08482
C          0.78624        3.08538       -0.43796
N          1.64518        3.78049       -0.73028
C         -1.62317        2.70283       -0.11213
C         -2.48404        1.62609       -0.01260
C         -1.70119        0.48415        0.05425
H         -1.46163       -2.86995       -0.09427
H          0.88291       -3.68704       -0.01071
H          3.66601       -2.60466       -1.06543
H          4.09118       -0.53304        0.43429
H          3.36083        1.43358        1.25396
H          1.68662        1.92842        1.33740
H         -1.92140        3.73682       -0.26748
H         -3.56981        1.66890       -0.06055
