31
Coordinates from ORCA-job ./opt_b97-3c_parallel
N         -5.30747       -0.74297       -0.01277
C         -4.19210       -0.49115        0.01431
C         -2.77072       -0.16794        0.03018
C         -2.43367        1.19464        0.02494
N         -3.44427        2.12926        0.01746
C         -1.16375        1.76537        0.02933
C          0.11488        1.20224        0.02707
C          1.12898        2.17509        0.02186
C          2.47524        1.85704        0.02389
C          2.86586        0.48866        0.04151
C          4.02285       -0.37159        0.02158
N          5.24891        0.23040       -0.00869
C          3.83098       -1.79578        0.10590
C          2.40263       -1.77975        0.03441
C          1.83618       -0.50962        0.03306
C          0.45453       -0.17245        0.03198
C         -0.47414       -1.22634        0.05057
C         -1.87113       -1.24944        0.05014
N         -2.38755       -2.52492        0.07379
H         -4.39681        1.81963       -0.14581
H         -3.21689        3.09953       -0.16881
H         -1.18338        2.85423        0.03149
H          0.87768        3.23312        0.01601
H          3.22468        2.64373        0.01665
H          5.30390        1.22970        0.15901
H          6.07372       -0.32955        0.17356
H          4.49581       -2.57703       -0.24710
H          1.86080       -2.71805        0.00240
H         -0.05932       -2.22416        0.07287
H         -1.76944       -3.31311       -0.08481
H         -3.38306       -2.65503       -0.07405
