24
Coordinates from ORCA-job ./opt_b97-3c_parallel
N          4.27446       -0.92858        0.08139
C          3.37654       -0.28681        0.13150
C          3.12757        1.03976        0.41544
C          1.77271        1.11805        0.28632
N          0.94223        2.22306        0.44485
C         -0.42118        2.04675        0.24619
C         -1.01190        0.78559       -0.12036
C         -2.43536        0.70481       -0.28626
N         -3.30808        1.37437       -0.35506
N         -3.24345       -0.27571        0.13765
C         -2.88097       -1.54597        0.40483
N         -1.77421       -2.25631       -0.04931
C         -0.67792       -1.62243       -0.60403
C         -0.18944       -0.31716       -0.25939
C          1.22309       -0.14462       -0.05936
N          2.25401       -0.97552       -0.14427
H          5.22316       -0.57521        0.20910
H          4.36639       -1.93639       -0.05052
H          3.76688        1.83086        0.02785
H         -0.99951        2.97005        0.40512
H         -4.32436        1.30426       -0.32524
H         -3.09018        2.16258       -0.96103
H         -3.74639       -2.10887        0.78752
H         -0.51202       -2.71048       -0.61779
