23
Coordinates from ORCA-job ./opt_b97-3c_parallel
C          3.29915       -0.82334       -0.00077
C          3.26851        0.56972       -0.00175
C          2.13648        1.39346       -0.00089
C          0.77646        1.03546       -0.00001
C         -0.13671        2.10897       -0.00015
C         -1.51669        1.90400        0.00024
C         -1.97087        0.59657        0.00059
C         -3.26969        0.11665        0.00092
C         -3.18950       -1.27153        0.00143
C         -1.84573       -1.63618        0.00139
C         -1.09595       -0.46666        0.00101
C          0.28950       -0.29120        0.00084
N          1.09262       -1.36612        0.00161
C          2.14442       -1.66931        0.00173
H          4.25243       -1.34651       -0.00146
H          4.23222        1.07316       -0.00288
H          2.35707        2.45855       -0.00155
H          0.22962        3.13307       -0.00055
H         -2.20961        2.74184        0.00013
H         -4.17963        0.71182        0.00061
H         -4.03387       -1.95590        0.00143
H         -1.45714       -2.65167        0.00183
H          2.10015       -2.75152        0.00010
