27
Coordinates from ORCA-job ./opt_b97-3c_parallel
N         -5.16952       -1.49150       -0.14244
C         -4.12950       -1.01928       -0.08874
C         -2.82695       -0.40795       -0.01827
C         -1.82114       -1.44171        0.03493
N         -0.72798       -1.27709        0.03051
C          0.19069       -0.28407        0.00186
C         -0.16469        1.08809       -0.03771
N         -1.47227        1.43080       -0.03182
C         -2.48788        0.99540       -0.00190
N         -3.40767        1.98964        0.16750
N          0.78944        2.06097       -0.07757
C          2.09971        1.72327       -0.07679
N          3.00833        2.74119       -0.11862
C          2.48616        0.38738       -0.03217
C          3.78110       -0.20773       -0.02413
N          3.06751       -1.08965        0.00789
C          2.22198       -1.84392        0.04397
N          1.87329       -3.16096        0.10151
C          1.55491       -0.58452        0.00644
H         -1.93304       -2.51175       -0.09701
H         -4.39787        1.77245        0.13267
H         -3.12299        2.95935        0.08999
H          3.98106        2.53951        0.08181
H          2.67669        3.68991        0.01951
H          4.75010        0.27584       -0.02996
H          0.89726       -3.42285        0.01467
H          2.57864       -3.88088       -0.00259
