26
Coordinates from ORCA-job ./opt_b97-3c_parallel
N         -1.28470       -3.66006        0.34098
C         -1.29615       -2.65601       -0.20741
C         -1.04837       -1.23265       -0.12006
C         -2.09258       -0.30435       -0.01480
N         -3.14433       -0.66874        0.00833
C         -1.87904        1.07189        0.05941
C         -2.92762        1.95161        0.11552
N         -2.30008        3.06872       -0.17477
C         -0.95982        2.78103       -0.26189
C         -0.49986        1.45392        0.02457
C          0.60230        0.54352       -0.01772
C          1.91344        1.15540        0.08873
C          3.13744        0.49673        0.10333
N          4.14613        0.93403        0.21586
N          3.55384       -0.78056       -0.00586
C          2.55768       -1.71429       -0.16944
N          1.27567       -1.71246       -0.23300
C          0.30438       -0.86480       -0.13313
H         -3.99056       -0.11736        0.14103
H         -3.37464       -1.62282        0.28245
H         -3.98062        2.26894        0.15891
H         -0.53100        3.76093       -0.52052
H          1.90353        2.23830        0.18777
H          5.10954        0.60229        0.26340
H          4.16999        1.89970        0.54219
H          2.68810       -2.80131       -0.29164
