27
Coordinates from ORCA-job ./opt_b97-3c_parallel
N         -4.48831       -0.83598       -0.00569
C         -3.15719       -0.52566       -0.01759
C         -2.83370        0.82173        0.03814
C         -1.58560        1.43147        0.02033
C         -0.29278        0.88049       -0.03245
C          0.79502        1.79757       -0.05141
N          0.63721        3.15588       -0.08038
N          2.09834        1.44487       -0.06207
C          2.36476        0.13276       -0.05574
C          3.71946       -0.37275       -0.05152
C          3.39204       -1.78647       -0.03489
C          2.03032       -2.04120       -0.04268
C          1.38206       -0.82673       -0.05603
C          0.01479       -0.50339       -0.05621
C         -0.88543       -1.57687       -0.08768
C         -2.27320       -1.59141       -0.08337
H         -5.15671       -0.11273        0.23601
H         -4.76386       -1.80353        0.12105
H         -3.67414        1.51139        0.09401
H         -1.67159        2.51193        0.06696
H          1.45462        3.72054       -0.28354
H         -0.26759        3.52989       -0.34091
H          4.57544        0.08638        0.43264
H          4.10061       -2.61036       -0.01199
H          1.58386       -3.03111       -0.02696
H         -0.46581       -2.57523       -0.13103
H         -2.71977       -2.58320       -0.12725
