32
Coordinates from ORCA-job ./opt_b97-3c_parallel
N         -1.46927       -4.25754       -0.78863
C         -1.55197       -3.28563       -0.19382
C         -1.54375       -1.83582       -0.07403
C         -0.17769       -1.56481       -0.05524
C          0.48531       -0.27816       -0.07806
C         -0.07603        0.99246       -0.09371
C          0.84384        2.10473       -0.29762
N          1.18367        3.15015       -0.42864
N          2.22397        2.05101       -0.38051
C          2.70821        0.80581       -0.23842
N          4.02900        0.45347       -0.20348
C          4.00608       -0.92441       -0.03133
N          5.04142       -1.30614        0.06409
C          2.74557       -1.47967        0.03629
C          1.94291       -0.37701       -0.09525
C         -1.47507        1.36701        0.10616
N         -1.65407        2.46393        0.22293
C         -2.56314        0.49107        0.18411
C         -3.88864        1.05099        0.41520
N         -4.91103        1.51653        0.62245
C         -2.64851       -0.89414        0.04009
N         -3.55454       -1.54670        0.02148
H          0.51781       -2.40037       -0.09755
H          0.22427        3.11430       -0.77560
H          1.52953        4.08261       -0.65865
H          5.94094       -0.82243        0.10401
H          5.26360       -2.29033        0.22606
H          2.52871       -2.23938        0.78620
H         -2.62340        2.66704        0.47000
H         -1.12652        3.25478        0.59400
H         -3.74951       -2.49445       -0.29969
H         -4.44639       -1.05337        0.00426
