30
Coordinates from ORCA-job ./opt_b97-3c_parallel
N         -4.32434        2.24138        0.06149
C         -3.36372        1.62569       -0.01057
C         -2.13909        0.86600       -0.08892
C         -0.91640        1.52140       -0.14463
C          0.33426        0.84885       -0.15657
C          1.47300        1.69053       -0.16534
N          1.33038        3.03653       -0.39895
C          2.79664        1.36331        0.11774
C          3.38030        0.12187        0.29031
N          4.70473        0.10951        0.63223
C          2.79708       -1.10277        0.02207
C          1.46795       -1.41401       -0.25009
N          1.33631       -2.71991       -0.64037
C          0.32709       -0.57995       -0.15804
C         -0.95281       -1.18649       -0.08963
C         -1.39529       -2.53143        0.06635
C         -2.82502       -2.37900        0.15122
N         -3.21044       -1.32859        0.07723
C         -2.13948       -0.51500       -0.04256
H         -0.97772        2.60674       -0.13026
H          0.47796        3.35129       -0.85031
H          2.16927        3.57623       -0.57997
H          3.48314        2.20549        0.21232
H          5.10572        0.96107        1.00908
H          5.10651       -0.76830        0.94374
H          3.48863       -1.94587        0.03138
H          2.17820       -3.22121       -0.90361
H          0.47953       -2.98362       -1.11352
H         -0.85399       -3.45583        0.23257
H         -3.58760       -3.12701        0.33301
