34
Coordinates from ORCA-job ./opt_b97-3c_parallel
N         -4.28215        2.92752       -0.15390
C         -3.52714        2.06902       -0.13697
C         -2.55885        0.99002       -0.08594
C         -3.12043       -0.28969        0.29001
N         -4.31351       -0.47366        0.93930
N         -2.85865       -1.34279        0.08303
C         -1.84078       -1.65696       -0.20841
N         -2.17942       -2.58112       -1.16191
C         -0.48669       -1.18131       -0.02170
C          0.51844       -2.13578        0.25025
N          0.22589       -3.45610        0.46839
C          1.85462       -1.75744        0.30544
C          2.14949       -0.42772        0.07865
C          3.40469        0.22359        0.07667
C          4.71084       -0.32799        0.24683
N          5.70703       -0.78965        0.56598
C          2.92226        1.56368       -0.16464
N          3.77343        2.62428       -0.27203
N          1.81847        1.72978       -0.26828
C          1.20283        0.53082       -0.14456
C         -0.17575        0.19985       -0.17266
C         -1.18110        1.20409       -0.31576
N         -0.83299        2.49105       -0.65244
H         -4.91858        0.32676        1.08837
H         -4.75049       -1.38823        0.91344
H         -1.44876       -3.16460       -1.55500
H         -3.12758       -2.93885       -1.18973
H          0.94928       -4.06208        0.83899
H         -0.74208       -3.71425        0.63264
H          2.64200       -2.48045        0.50809
H          4.77545        2.47030       -0.29911
H          3.41699        3.52716       -0.56449
H          0.14700        2.74961       -0.68778
H         -1.52686        3.22794       -0.58700
