32
Coordinates from ORCA-job ./opt_b97-3c_parallel
N         -4.55463        2.01949       -1.00116
C         -3.62257        1.47418       -0.62419
C         -2.42076        0.78190       -0.16267
C         -2.47233       -0.62750       -0.13687
N         -3.69986       -1.19065       -0.44468
C         -1.43249       -1.53284        0.17791
C         -1.83863       -2.92933        0.34903
N         -2.17242       -4.01340        0.49225
C         -0.04082       -1.27689        0.20411
N          0.75580       -2.39243        0.18763
C          2.09849       -2.35178        0.12479
C          2.77857       -1.15628        0.02542
C          4.13588       -1.08298       -0.22110
C          4.66326        0.22578       -0.45293
C          3.26113        0.56562       -0.42032
N          3.19491        1.79451       -1.01756
C          2.01902        0.04700        0.10964
C          0.57086       -0.00117        0.26096
C         -0.04339        1.23045        0.55618
C          0.82942        2.26153        1.10575
N          1.50122        3.07176        1.55415
C         -1.38147        1.60160        0.32026
N         -1.69084        2.93513        0.52155
H         -4.51091       -0.59294       -0.56640
H         -3.84501       -2.18562       -0.30589
H          2.60842       -3.31254        0.07499
H          4.73176       -1.98844       -0.31247
H          5.36387        0.46313       -1.24888
H          4.06354        2.28885       -1.19005
H          2.37072        2.36155       -0.84588
H         -2.57454        3.29585        0.17390
H         -0.94125        3.59695        0.69536
