34
Coordinates from ORCA-job ./opt_b97-3c_parallel
N         -5.22377       -1.14409        0.43056
C         -4.19475       -0.67210        0.26803
C         -2.87829       -0.08028        0.07251
C         -2.77061        1.28455        0.37459
N         -3.83205        1.95668        0.93220
C         -1.76245        2.10869       -0.09313
C         -0.49530        1.76659       -0.53854
N          0.16243        2.80961       -1.13447
C          0.16580        0.54542       -0.30434
C         -0.45734       -0.73326       -0.26746
C         -1.85954       -0.91815       -0.43371
N         -2.30332       -2.05608       -1.07460
C          0.38911       -1.88401       -0.10845
N         -0.11407       -3.15177        0.08283
C          1.78748       -1.77134       -0.00156
C          2.64489       -2.92691        0.18409
N          3.30726       -3.84628        0.33058
C          2.35682       -0.50993        0.00956
N          3.65541       -0.20191        0.21990
C          3.68201        0.91819        0.25925
C          2.46532        1.67023        0.05669
C          2.88671        3.01096        0.33174
N          2.57961        4.05411        0.68500
C          1.56627        0.58482       -0.14621
H         -3.69483        2.91313        1.24065
H         -4.57381        1.41850        1.36830
H         -1.99057        3.17499       -0.09512
H          1.01608        2.61797       -1.64779
H         -0.36397        3.63869       -1.38810
H         -3.29670       -2.25834       -1.12530
H         -1.63594       -2.74695       -1.40102
H          0.51840       -3.89565        0.35998
H         -1.10073       -3.25759        0.29485
H          4.68544        1.24645        0.51090
