28
Coordinates from ORCA-job ./opt_b97-3c_parallel
N          5.44697       -0.49217       -0.38837
C          4.31498       -0.47015       -0.23611
C          2.88239       -0.41026       -0.08167
C          2.37919       -1.69491       -0.20832
C          1.06302       -2.17677        0.14353
C         -0.11269       -1.45190        0.37655
N         -0.79569       -2.26405        0.67145
C         -0.29516       -0.03599        0.15213
C          0.75773        0.84407        0.07089
C          0.34507        2.13768       -0.16888
N         -0.86223        2.70939       -0.23228
C         -1.89186        1.86529       -0.11280
N         -3.22500        2.17294       -0.24220
C         -3.89691        0.96191       -0.19044
C         -2.98214       -0.13634       -0.03469
C         -3.43054       -1.49046       -0.10779
N         -3.83072       -2.55723       -0.19232
C         -1.67430        0.47003        0.05457
C          2.11338        0.76477        0.26199
N          2.76166        1.60821        0.59929
H          3.07594       -2.50121       -0.43610
H          1.06907       -3.27392        0.17205
H         -1.21406       -2.19278        1.59826
H         -0.77218       -3.26080        0.45373
H          0.73068        3.16168       -0.29492
H         -4.98189        0.81414       -0.30733
H          2.73793        2.11533        1.48275
H          3.74702        1.53760        0.34475
