36
Coordinates from ORCA-job ./opt_b97-3c_parallel
N          5.04484       -1.00308       -1.57373
C          4.06285       -0.70066       -1.07240
C          2.81629       -0.31378       -0.41855
C          2.63852        1.05383       -0.12865
N          3.73205        1.87039       -0.35475
C          1.47383        1.68680        0.36213
C          1.64495        3.05602        0.83024
N          1.78937        4.12573        1.20726
C          0.15406        1.18360        0.27048
C         -0.89760        2.14036        0.21109
C         -2.23334        1.79381        0.05467
N         -3.18955        2.76360       -0.06519
C         -2.53706        0.44720       -0.04911
C         -3.80143       -0.16608       -0.30399
N         -5.10412        0.23816       -0.34613
N         -3.06687       -1.02271       -0.33781
C         -2.19368       -1.73542       -0.30877
N         -2.13051       -3.04495       -0.68936
C         -1.56963       -0.49352        0.04420
C         -0.20087       -0.18896        0.24523
C          0.68384       -1.24960        0.52274
C          0.17141       -2.36364        1.30944
N         -0.20783       -3.23552        1.94352
C          2.01296       -1.35564        0.07693
N          2.56975       -2.62062        0.09618
H          3.71332        2.82975       -0.02422
H          4.63238        1.44922       -0.55957
H         -0.70349        3.20936        0.22101
H         -2.88879        3.72823       -0.15256
H         -4.07577        2.50839       -0.48689
H         -5.84101       -0.45777       -0.35913
H         -5.33938        1.16352       -0.00422
H         -1.28235       -3.56743       -0.49749
H         -2.98791       -3.57304       -0.80281
H          2.07904       -3.37412        0.56680
H          3.56225       -2.72976       -0.08570
