29
Coordinates from ORCA-job ./opt_b97-3c_parallel
N          1.45904       -4.09159        0.15473
C          0.92494       -3.08221        0.13844
C          0.23704       -1.81248        0.11279
C         -1.15900       -1.86531        0.08528
C         -1.86135       -0.67080        0.03626
C         -3.26979       -0.46452       -0.01710
N         -4.30981       -1.34779       -0.01138
N         -2.82939        0.57866       -0.03735
C         -2.22707        1.53665       -0.07382
N         -2.53252        2.84939       -0.28635
C         -1.22917        0.52090        0.02993
C          0.16514        0.63218        0.08819
C          0.71660        1.91996        0.14141
C          2.11658        2.22169        0.26193
N          3.07249        1.68474        0.14114
C          3.16613        0.59269        0.02605
N          4.47845        0.53755       -0.34834
C          2.32857       -0.57519        0.09751
C          0.92145       -0.57168        0.10409
H         -1.68820       -2.81581        0.08817
H         -4.13500       -2.33093        0.16154
H         -5.25942       -1.00615        0.08498
H         -3.47746        3.09769       -0.55517
H         -1.78955        3.48605       -0.55132
H          0.10579        2.81775        0.16111
H          2.58306        3.17410        0.48484
H          4.93796       -0.35981       -0.45315
H          5.05629        1.36844       -0.28735
H          2.92286       -1.48527        0.11048
