31
Coordinates from ORCA-job ./opt_b97-3c_parallel
N          4.67570       -2.34291       -0.08199
C          3.63297       -1.89631        0.06041
C          2.50503       -1.01858        0.01550
C          2.46496        0.43385       -0.00741
N          3.56445        1.24471       -0.09253
C          1.16297        0.91718        0.01081
C          0.65571        2.21496        0.01773
N          1.43981        3.33100        0.06620
N         -0.67656        2.43123        0.00917
C         -1.54778        1.38515       -0.00077
C         -2.90460        1.75171       -0.02729
C         -4.05233        0.94983       -0.04656
C         -4.11468       -0.44166       -0.03122
C         -2.97407       -1.30472        0.01451
N         -3.07666       -2.66254        0.07946
N         -1.92408       -1.00092        0.01602
C         -1.08524        0.04754        0.01287
C          0.30553       -0.14536        0.01785
C          1.07915       -1.30181        0.02363
N          0.55387       -2.56540        0.04365
H          4.45742        0.81104       -0.30273
H          3.42540        2.19817       -0.40835
H          0.98436        4.21562        0.26215
H          2.39725        3.22142        0.38029
H         -3.10468        2.82150       -0.04057
H         -5.00479        1.47296       -0.07653
H         -5.08437       -0.93391       -0.05093
H         -3.98211       -3.10358       -0.03403
H         -2.24954       -3.23593       -0.04224
H         -0.43620       -2.66842        0.24133
H          1.16846       -3.34543        0.24905
