30
Coordinates from ORCA-job ./opt_b97-3c_parallel
N         -5.68614       -0.92235        0.13069
C         -4.59641       -0.57908        0.09585
C         -3.21511       -0.15586        0.07179
C         -3.07740        1.19270        0.55785
N         -2.33887        1.99337        0.36525
C         -1.32852        1.83733       -0.04984
N         -1.29159        2.84731       -0.97198
C         -0.37941        0.74824       -0.03705
C         -0.77767       -0.60170       -0.18853
C          0.23251       -1.58820       -0.25619
C          1.59138       -1.28288       -0.13485
C          2.55003       -2.35903       -0.17166
N          3.29500       -3.22530       -0.19562
C          1.95053        0.05274        0.04633
C          3.19205        0.66949        0.20659
C          4.49812        0.06095        0.23348
N          5.54079       -0.40571        0.25830
C          2.97003        2.03369        0.34677
C          1.60319        2.26340        0.27480
C          0.98205        1.03567        0.08884
C         -2.13744       -1.00310       -0.24928
N         -2.44426       -2.29687       -0.59465
H         -3.77112        1.77255        1.15616
H         -0.44809        3.00080       -1.51302
H         -1.95841        3.60851       -0.90651
H         -0.02701       -2.63801       -0.36858
H          3.73540        2.79230        0.49122
H          1.11717        3.23246        0.35806
H         -1.73436       -2.85409       -1.05676
H         -3.41463       -2.52287       -0.78848
