25
Coordinates from ORCA-job ./opt_b97-3c_parallel
N          3.65720        2.68887       -0.12308
C          3.05098        1.72048       -0.07131
C          2.26060        0.52917       -0.02170
C          3.15763       -0.52518       -0.10080
N          3.06733       -1.86701       -0.09819
C          1.78301       -2.33892       -0.01225
N          0.56331       -1.94233        0.05737
C          0.04157       -0.76164        0.08181
C          0.80965        0.47564        0.07300
C          0.09538        1.74675        0.12690
C         -1.29632        1.79744        0.12748
C         -2.00546        0.55446        0.09002
C         -3.35986        0.37742        0.03888
N         -4.23098        1.05312        0.01502
C         -3.48377       -0.98939        0.00821
C         -2.28903       -1.58496        0.04024
C         -1.33177       -0.61907        0.08759
H          4.24766       -0.65257       -0.18436
H          1.86392       -3.43638       -0.00102
H          0.62682        2.69306        0.18401
H         -1.80301        2.75795        0.17783
H         -5.22890        0.91067       -0.12560
H         -4.05553        2.05080       -0.08617
H         -4.42999       -1.52507       -0.03810
H         -2.11581       -2.65827        0.02486
