30
Coordinates from ORCA-job ./opt_b97-3c_parallel
N         -0.36856       -3.52142        1.21421
C          0.19394       -2.59726        0.84461
C          0.93659       -1.43837        0.40059
C          2.32107       -1.68335        0.35150
C          3.34681       -0.80376        0.01255
C          3.17246        0.57918       -0.29989
N          4.19227        1.39346       -0.69253
N          2.23487        1.12084       -0.17048
C          0.91180        1.01384        0.00389
C          0.20130        2.20259        0.12657
C         -1.16147        2.19886        0.37422
N         -1.82193        3.37660        0.58499
C         -1.93146        0.98982        0.28202
C         -3.32987        0.81410        0.01500
C         -3.42908       -0.51908       -0.50035
C         -2.15227       -1.17574       -0.49966
N         -2.24632       -2.35860       -1.17600
C         -1.21322       -0.24114        0.06648
C          0.24889       -0.21811        0.15213
H          2.65220       -2.69365        0.58720
H          4.37385       -1.16101       -0.00509
H          5.14454        1.04629       -0.69219
H          4.04903        2.39674       -0.71729
H          0.73449        3.14944        0.09390
H         -1.32589        4.25146        0.45545
H         -2.83515        3.38449        0.54921
H         -4.16664        1.49523       -0.11590
H         -4.35467       -0.96033       -0.85896
H         -1.46480       -3.00217       -1.10592
H         -3.16676       -2.76250       -1.30690
