23
Coordinates from ORCA-job ./opt_b97-3c_parallel
N          2.00368       -2.28295        0.02688
C          1.99069       -1.18013        0.03458
C          3.23366       -0.59555        0.05368
C          3.11265        0.73344        0.05702
C          1.78597        1.02133        0.03903
C          1.02785        2.22991        0.02984
N         -0.36188        2.30131       -0.00001
C         -1.05698        1.13318       -0.02466
N         -2.44188        1.28329       -0.06534
C         -3.21983        0.14420       -0.12119
C         -3.65657       -1.14380       -0.17217
C         -2.34109       -1.48154       -0.09269
N         -0.96558       -1.42708       -0.02082
C         -0.36631       -0.16794       -0.00819
C          1.00789       -0.14332        0.02339
H          2.66508       -3.05859        0.02362
H          1.07239       -2.69583        0.01107
H          4.18641       -1.12536        0.05846
H          3.92954        1.45175        0.06475
H          1.52009        3.21447        0.04272
H         -4.19080        0.66283       -0.15046
H         -4.37650       -1.52369        0.54935
H         -2.31138       -2.58232       -0.06275
