29
Coordinates from ORCA-job ./opt_b97-3c_parallel
N          4.49481        2.63027        0.51360
C          3.59845        1.94347        0.33502
C          2.44767        1.08553        0.11406
C          1.29601        1.79803       -0.17305
C         -0.01906        1.37254       -0.30581
C         -0.86607        2.46846       -0.73193
N         -1.50333        3.34761       -1.09018
C         -0.54248        0.06939       -0.15155
C          0.20584       -1.14821       -0.18523
N         -0.47426       -2.34223       -0.24697
C         -1.81378       -2.42898       -0.19057
C         -2.55746       -1.28425       -0.01872
C         -3.95738       -1.16186        0.21711
N         -3.55225       -0.11130        0.30821
C         -2.96690        0.84929        0.38522
N         -3.68822        1.93125        0.79742
C         -1.94722       -0.08050       -0.00081
C          1.62241       -1.29095       -0.12757
C          2.14206       -2.65495       -0.24457
N          2.56669       -3.71371       -0.33878
C          2.61167       -0.30665        0.11414
N          3.90260       -0.74382        0.35220
H          1.44521        2.87627       -0.27231
H         -2.25432       -3.42395       -0.20866
H         -4.68300       -1.94093        0.41647
H         -4.70057        1.89113        0.80627
H         -3.24409        2.84292        0.82866
H          4.65782       -0.07153        0.43896
H          4.12747       -1.73028        0.27075
