31
Coordinates from ORCA-job ./opt_b97-3c_parallel
N          1.87442        4.24933        0.27259
C          1.58597        3.14595        0.22160
C          1.19341        1.76658        0.12428
C          2.21478        0.74186       -0.01426
N          3.24143        0.92376       -0.39242
C          1.83067       -0.64182        0.07364
C          2.67432       -1.72568        0.12137
N          3.71744       -2.09950        0.12836
N          1.83802       -2.84398        0.17953
C          0.49738       -2.43709        0.16312
N          0.29112       -3.52594        0.22652
C          0.52722       -0.99875        0.08235
C         -0.57318       -0.04019        0.05465
C         -1.97894       -0.47358       -0.00469
C         -2.41791       -1.83085       -0.12441
N         -2.73185       -2.92209       -0.24475
C         -3.15178        0.30092       -0.01843
N         -4.26479        0.35640       -0.06469
N         -3.44540        1.61987        0.04271
C         -2.38418        2.49776        0.13585
N         -1.11904        2.28281        0.16029
C         -0.21226        1.36984        0.10500
H          3.84816        1.36638        0.30179
H          3.25149        1.55776       -1.19446
H          4.44704       -2.78655        0.33380
H          4.21930       -1.27949       -0.22292
H          0.49023       -4.27400        0.89727
H         -0.47486       -3.89823       -0.34209
H         -4.65985       -0.21329       -0.81530
H         -5.07469        0.64408        0.49190
H         -2.54462        3.58683        0.20085
