30
Coordinates from ORCA-job ./opt_b97-3c_parallel
N          6.03120       -0.21025        0.17780
C          4.91015        0.00393        0.11408
C          3.48997        0.25777        0.02761
C          3.22871        1.63811       -0.28298
N          2.38215        2.34428       -0.24083
C          1.35847        1.99024       -0.03719
C          0.54022        0.80258       -0.03008
C          1.10619       -0.49003        0.06829
C          0.22157       -1.58511        0.06997
C         -1.15921       -1.42191       -0.01646
C         -1.99110       -2.59989       -0.04588
N         -2.64058       -3.53937       -0.08140
C         -1.69727       -0.13612       -0.08382
C         -3.10986        0.13425       -0.14024
C         -4.40001       -0.43221        0.10720
N         -5.44013       -0.76952       -0.22676
C         -2.74942        1.53288       -0.10824
N         -3.71847        2.49002        0.03571
C         -1.49447        2.24006       -0.17393
C         -0.85194        0.95900       -0.09543
C          2.50184       -0.73498        0.16358
N          2.94479       -2.01349        0.40470
H          3.89354        2.36217       -0.74199
H          1.13417        2.97520        0.35852
H          0.59493       -2.60501        0.11815
H         -4.69150        2.21038       -0.03673
H         -3.48502        3.46411       -0.11938
H         -1.24070        3.11869        0.41220
H          2.28230       -2.69695        0.75334
H          3.92176       -2.14458        0.64615
