27
Coordinates from ORCA-job ./opt_b97-3c_parallel
N          4.25217        1.12012       -0.36720
C          3.31202        0.57773       -0.14193
C          3.49098       -0.75834        0.12005
C          2.13975       -0.88389        0.05547
N          1.47724       -2.09757        0.21285
C          0.10119       -2.10720        0.09619
C         -0.66080       -0.92410       -0.17803
C         -2.07650       -1.21075       -0.26797
N         -2.87380       -1.97349       -0.25829
N         -3.12230       -0.34253       -0.00597
C         -2.77447        0.98756        0.01597
N         -3.69711        1.53701        0.26664
N         -1.87565        2.01147       -0.15787
C         -0.59654        1.60280       -0.49258
C          0.00093        0.29904       -0.29393
C          1.44508        0.34280       -0.18984
C          2.25250        1.43143       -0.32616
H          5.10900        0.57980       -0.25391
H          4.54232        2.07108       -0.58976
H          4.03918       -1.09687        0.99776
H          0.10815       -3.18592        0.31592
H         -3.75947       -2.44645       -0.43605
H         -2.14333       -2.61502       -0.56624
H         -4.54228        1.04419        0.55303
H         -3.88951        2.52965        0.39341
H         -0.27340        2.65379       -0.54900
H          2.12093        2.30767        0.30711
