30
Coordinates from ORCA-job ./opt_b97-3c_parallel
N          5.85967        0.40462       -0.52423
C          5.08769       -0.30251       -0.06515
C          3.67612       -0.24342        0.15195
C          2.78930       -1.36850        0.19715
C          1.42733       -1.11117        0.14046
C          0.44616       -2.10255        0.14299
N          0.75223       -3.43073        0.22486
N         -0.86928       -1.81930        0.06150
C         -1.31401       -0.53539        0.00688
C         -2.70246       -0.32955       -0.09159
C         -3.67431       -1.39633       -0.15799
N         -4.45349       -2.23066       -0.22028
C         -3.34458        0.95403       -0.20487
N         -3.09746        2.02092       -0.05767
C         -2.08430        2.40143        0.15244
N         -2.37979        3.64360        0.63563
C         -0.73917        1.89763        0.09179
C         -0.39607        0.54183        0.04639
C          1.01782        0.25930        0.05612
C          2.43885        0.46437       -0.05784
N          2.60561        1.74172       -0.51702
H          3.17390       -2.38378        0.25594
H         -0.00307       -4.08376        0.40323
H          1.68709       -3.69855        0.50921
H         -4.30674        1.19316       -0.64426
H         -1.63585        4.29170        0.86877
H         -3.33049        3.99373        0.59367
H          0.03290        2.66255        0.12889
H          1.80332        2.23131       -0.89708
H          3.52869        2.02665       -0.82819
