29
Coordinates from ORCA-job ./opt_b97-3c_parallel
N          5.07673       -1.43767       -0.00124
C          4.15546       -0.76024        0.00123
C          2.97286        0.08708        0.00312
C          3.31711        1.43303        0.00607
C          2.49522        2.53730        0.00823
C          1.11704        2.57842        0.00563
C          0.17500        1.54469        0.00142
C         -1.13723        2.06403       -0.00073
C         -2.25943        1.25194       -0.00408
C         -3.58831        1.80779       -0.00428
N         -4.64106        2.25290        0.00547
C         -2.03318       -0.10402       -0.00390
C         -2.94969       -1.18076       -0.00179
C         -2.05796       -2.31134        0.00832
N         -2.52558       -3.59150        0.03116
N         -0.98050       -2.00415        0.00474
C         -0.78894       -0.66018        0.00001
C          0.40280        0.13221        0.00145
C          1.68522       -0.50463        0.00337
N          1.73354       -1.88093        0.00811
H          4.38083        1.67034        0.00782
H          2.99886        3.50152        0.01151
H          0.73389        3.59737        0.00731
H         -1.30517        3.14041        0.00140
H         -4.03506       -1.18577        0.00196
H         -1.87186       -4.35320        0.17655
H         -3.50734       -3.76840        0.20960
H          0.88136       -2.42707       -0.01842
H          2.62640       -2.36136       -0.01960
