25
Coordinates from ORCA-job ./opt_b97-3c_parallel
N          4.10903        0.78944       -0.74706
C          3.17070        0.24400       -0.52939
C          3.07281       -1.07898       -0.15059
C          1.72858       -1.15715        0.06072
C          0.97307       -2.27985        0.56149
C         -0.40698       -2.21460        0.70493
C         -1.07235       -1.00606        0.31193
C         -2.33709       -1.27138       -0.31822
N         -3.13144       -0.32370       -0.85371
C         -3.08376        1.02051       -0.76454
N         -2.29084        1.83153        0.04286
C         -1.08488        1.36721        0.53210
N         -0.99173        2.34907        1.03433
C         -0.39952        0.22222       -0.00556
C          1.03073        0.05466       -0.20649
N          1.98001        0.96806       -0.57524
H          4.37622        1.69494       -1.13640
H          4.99252        0.32128       -0.53633
H          3.59486       -1.86441       -0.69591
H          1.49894       -3.19463        0.83111
H         -0.94730       -3.08110        1.08433
H         -3.05274       -2.07703       -0.54560
H         -4.02899        1.02751       -1.33166
H         -1.34823        2.40314        1.99044
H         -0.95462        3.31535        0.70336
