27
Coordinates from ORCA-job ./opt_b97-3c_parallel
N         -4.99020        1.41663       -0.54739
C         -3.84961        1.35066       -0.51303
C         -2.76241        0.45118       -0.29368
C         -1.37526        0.81490       -0.29802
C         -0.44402       -0.15234        0.06923
C         -1.07502       -1.42153        0.30301
C         -0.28102       -2.60554        0.24634
C          1.08788       -2.47899        0.08867
C          1.70880       -1.23000        0.01248
N          3.03344       -1.26037       -0.16707
C          4.00120       -0.78166       -0.31989
C          4.08282        0.62915       -0.10780
C          3.02219        1.50562        0.12731
C          1.63780        1.24130        0.19138
C          0.91554        2.42854        0.59363
N          0.36820        3.37662        0.92236
C          0.97461       -0.02111        0.07961
C         -2.38649       -0.90204        0.02133
N         -3.38797       -1.83229        0.07201
H         -1.12364        1.78974       -0.70127
H         -0.73411       -3.59056        0.32086
H          1.69118       -3.38357        0.03762
H          4.73274       -1.44111       -0.77214
H          5.10562        0.99813       -0.11982
H          3.33556        2.53650        0.28900
H         -4.35057       -1.51121        0.07219
H         -3.18877       -2.74938        0.45537
