33
Coordinates from ORCA-job ./opt_b97-3c_parallel
N          5.54466        0.92659        0.42683
C          4.50187        0.48897        0.25714
C          3.16698       -0.07483        0.06102
C          3.15246       -1.45063       -0.22446
N          4.33650       -2.13145       -0.39122
C          2.04459       -2.27499       -0.29225
C          0.70677       -1.96659       -0.15815
C          0.05871       -0.72898       -0.07399
C          0.66797        0.55789       -0.05499
C         -0.24038        1.65572       -0.21590
N          0.10700        2.94188       -0.53021
N         -1.58049        1.55634       -0.22134
C         -2.11942        0.34307       -0.08206
C         -3.54900        0.21670       -0.06167
C         -4.63108        1.14881       -0.13066
N         -5.71376        1.42112        0.11718
C         -3.32896       -1.20377        0.05911
N         -4.44498       -1.96969        0.25575
C         -2.13368       -2.00718        0.05594
C         -1.35411       -0.80063       -0.03385
C          2.06080        0.81200        0.15597
N          2.40243        2.07729        0.58971
H          5.20983       -1.66034       -0.17910
H          4.32812       -3.14520       -0.40919
H          2.24388       -3.33466       -0.44731
H          0.09517       -2.86086       -0.20759
H          1.05494        3.11545       -0.84718
H         -0.62268        3.56599       -0.85574
H         -5.32230       -1.50260        0.46331
H         -4.33815       -2.93647        0.54155
H         -1.95103       -2.83727        0.73186
H          1.66256        2.69802        0.90148
H          3.34060        2.24220        0.93910
