29
Coordinates from ORCA-job ./opt_b97-3c_parallel
N          4.25432        0.94490       -0.00181
C          3.28530        0.42714       -0.00746
N          3.62016       -0.90690       -0.06640
C          2.48767       -1.69503       -0.06458
N          1.22721       -1.40704       -0.00972
C          0.50615       -0.31797       -0.08797
C          1.02393        1.04185        0.02184
C          0.08406        2.13609        0.10209
C         -1.31745        1.80166        0.03551
N         -2.06451        2.93233       -0.14159
C         -1.77281        0.44191       -0.04112
C         -3.05037       -0.04086        0.03529
N         -4.06346        0.38297        0.14896
C         -2.91312       -1.40695       -0.03904
C         -1.64040       -1.80347       -0.14482
N         -1.28526       -3.09385       -0.25267
C         -0.90041       -0.65836       -0.14050
N          2.35549        1.44313        0.04865
H          5.13117        0.44333        0.11818
H          4.44411        1.93149        0.15652
H          2.87054       -2.72530       -0.11202
H          0.46400        3.15083        0.18790
H         -1.58309        3.80733       -0.31763
H         -3.00611        2.83136       -0.50505
H         -5.02920        0.17779        0.39714
H         -3.84539        1.30174        0.53126
H         -3.75311       -2.10044       -0.02483
H         -1.88899       -3.82561        0.11659
H         -0.31757       -3.36881       -0.09465
