32
Coordinates from ORCA-job ./opt_b97-3c_parallel
N         -3.06043       -3.46991       -0.38333
C         -2.22752       -2.69628       -0.26529
C         -1.16713       -1.73286       -0.09770
C          0.14031       -2.19675       -0.05569
C          1.20629       -1.32198        0.13919
C          2.51367       -1.92573        0.20817
N          3.52135       -1.63476       -0.13797
C          3.89680       -0.59731       -0.13219
N          4.94535       -0.61217       -1.00628
C          3.42098        0.61013        0.49064
C          2.06783        0.93444        0.64613
N          1.85065        2.15094        1.23588
C          0.99157        0.06513        0.31309
C         -0.34367        0.52727        0.17449
C         -0.72485        1.91351        0.06712
C         -0.24242        2.71465       -1.02257
N         -0.00655        3.82923       -1.10918
C         -2.11180        1.51589        0.00115
N         -2.99408        2.56531       -0.04401
C         -2.72590        0.21028       -0.07240
C         -4.08453       -0.14080        0.21968
N         -4.95024       -0.23690       -0.52058
C         -1.40389       -0.35924        0.00336
H          0.33323       -3.26370       -0.15641
H          2.78607       -2.97122        0.11313
H          5.51042        0.21886       -1.13972
H          5.28281       -1.49206       -1.37997
H          4.20239        1.29939        0.80464
H          0.93046        2.35515        1.60867
H          2.64181        2.64315        1.63656
H         -3.94762        2.36897       -0.33192
H         -2.62534        3.48675       -0.25634
