30
Coordinates from ORCA-job ./opt_b97-3c_parallel
N          1.53828       -2.78086       -1.32518
C          1.51883       -1.73389       -0.86411
C          1.51828       -0.39244       -0.30317
C          2.80487        0.17179       -0.08749
N          3.92744       -0.60145       -0.26305
C          3.09488        1.46872        0.34216
C          2.17364        2.54164        0.53964
N          1.10648        2.43784        0.34832
C          0.08960        1.61040        0.09233
C         -1.16146        2.19471       -0.07029
C         -2.27183        1.43381       -0.39597
N         -3.47246        2.04104       -0.63253
C         -2.22760       -0.00079       -0.34673
C         -3.29009       -0.94164       -0.13662
C         -2.63857       -2.09852        0.40230
C         -1.21464       -1.92359        0.44438
N         -0.62963       -2.95856        1.11813
C         -0.94802       -0.61609       -0.09666
C          0.25042        0.22737       -0.10214
H          4.84962       -0.20048       -0.13477
H          3.83954       -1.55052       -0.61167
H          4.11979        1.79527        0.50671
H          2.38060        3.57035        0.80876
H         -1.25926        3.27694       -0.00273
H         -3.56265        3.03707       -0.46476
H         -4.31426        1.47571       -0.64099
H         -4.35888       -0.83219        0.02875
H         -3.16556       -2.98329        0.74748
H         -1.15622       -3.81816        1.22334
H          0.38105       -3.03838        1.06986
