28
Coordinates from ORCA-job ./opt_b97-3c_parallel
N          3.95555        0.83683       -0.74546
C          2.84338        0.35896       -0.11350
C          2.72098       -1.02337        0.26471
C          1.51349       -1.72079        0.30810
C          0.22492       -1.17481        0.12194
C         -0.88488       -2.05485        0.04616
N         -0.73644       -3.41567        0.08121
C         -2.18804       -1.56686       -0.10156
C         -2.39416       -0.19865       -0.18898
N         -3.56670        0.45804       -0.32292
C         -3.31222        1.55686       -0.35152
C         -1.91698        1.91831       -0.25376
C         -1.32863        0.64178       -0.13649
C         -0.00922        0.21891        0.03014
C          1.05254        1.19534        0.13550
N          0.96851        2.33375        0.89106
N          2.14056        1.21129       -0.06093
H          4.04365        1.82964       -0.93231
H          4.77621        0.25139       -0.84274
H          3.65394       -1.54876        0.45739
H          1.61183       -2.78485        0.49964
H          0.18502       -3.79935       -0.09677
H         -1.53504       -3.98921       -0.16687
H         -3.03494       -2.24751       -0.15492
H         -4.18413        2.19191       -0.45385
H         -1.48042        2.91103       -0.27400
H          1.72851        3.00453        0.86593
H          0.06163        2.65580        1.20868
