35
Coordinates from ORCA-job ./opt_b97-3c_parallel
N         -5.18957        1.13770       -1.04634
C         -4.20949        0.68260       -0.67168
C         -2.95613        0.09094       -0.21382
C         -3.06898       -1.16943        0.38758
N         -4.31288       -1.66828        0.69651
C         -2.03866       -2.06342        0.62720
C         -0.67805       -1.95527        0.36243
N         -0.03338       -3.13678        0.61393
C          0.06485       -0.78546        0.08708
C         -0.45253        0.53911        0.05795
C         -1.77907        0.86233       -0.34113
N         -1.93230        2.04581       -1.03666
C          0.46725        1.61074        0.30167
N          0.02830        2.85771        0.69075
C          1.85728        1.41512        0.27323
C          2.79559        2.49209        0.51547
N          3.52689        3.34562        0.72430
C          2.33366        0.15259       -0.03183
N          3.62098       -0.22352       -0.20953
C          3.61306       -1.31995       -0.44141
N          4.73447       -2.00132       -0.81037
C          2.32952       -1.97241       -0.40881
C          1.46160       -0.88939       -0.10282
H         -5.14101       -1.16015        0.40356
H         -4.40911       -2.63480        0.98722
H         -2.36214       -3.03116        1.01392
H         -0.55862       -3.88900        1.04581
H          0.96557       -3.11258        0.78635
H         -1.15802        2.70041       -1.07882
H         -2.86347        2.37628       -1.26764
H          0.70145        3.51896        1.06445
H         -0.94724        2.97132        0.94504
H          4.65169       -2.93186       -1.20383
H          5.59211       -1.48798       -0.98183
H          2.12094       -2.99352       -0.71029
