31
Coordinates from ORCA-job ./opt_b97-3c_parallel
N          6.01397        2.12991       -0.00101
C          5.04918        1.51846        0.00243
C          3.82642        0.75877        0.00073
C          3.73676       -0.62331       -0.00005
C          2.38686       -0.92860       -0.00057
C          1.79851       -2.17117       -0.00092
C          0.40746       -2.24197       -0.00074
C         -0.10757       -3.59483       -0.00089
N         -0.52509       -4.65890       -0.00123
C         -0.41017       -1.06810       -0.00017
C         -1.80297       -1.27494        0.00035
C         -2.88791       -0.39836        0.00098
N         -4.10071       -1.04954        0.00266
C         -2.88345        1.00570        0.00078
C         -4.18251        1.66747        0.00057
N         -5.20735        2.17499       -0.00031
C         -1.74877        1.83247        0.00108
N         -1.93205        3.19639        0.00182
C         -0.40573        1.45773        0.00103
C          0.22240        0.20409        0.00015
C          1.63363        0.22439        0.00011
C          2.54143        1.28826        0.00080
H          4.56442       -1.32889       -0.00025
H          2.41184       -3.07078       -0.00120
H         -2.13872       -2.30646        0.00029
H         -4.96529       -0.51801       -0.00313
H         -4.13775       -2.06298       -0.00379
H         -1.13578        3.82378        0.00328
H         -2.87126        3.58174        0.00266
H          0.25804        2.31434        0.00166
H          2.32005        2.35151        0.00106
