33
Coordinates from ORCA-job ./opt_b97-3c_parallel
N         -4.43593       -2.55661        0.76360
C         -3.63102       -1.77822        0.53355
C         -2.60138       -0.80574        0.22872
C         -3.11553        0.39914       -0.38236
N         -4.05050        0.42546       -1.38253
N         -2.84539        1.46492       -0.27027
C         -1.86821        1.80877        0.11312
N         -2.22913        2.91658        0.82970
C         -0.51690        1.30372        0.04837
C          0.48939        2.24997       -0.16398
C          1.82320        1.87619       -0.18858
C          2.15383        0.53891       -0.02374
C          3.52177        0.10528       -0.07398
C          4.80684        0.69044        0.15080
N          5.62243        1.15292       -0.50221
C          3.02565       -1.24472        0.01142
N          3.85371       -2.31808       -0.16504
C          1.69202       -1.75961        0.17083
C          1.16721       -0.42043        0.16742
C         -0.20852       -0.06904        0.22882
C         -1.23055       -1.03296        0.47674
N         -0.91522       -2.25111        1.02811
H         -4.58699       -0.41272       -1.57845
H         -4.45592        1.31465       -1.65250
H         -3.16447        3.29369        0.72348
H         -1.51139        3.52690        1.20321
H          0.23402        3.29823       -0.30079
H          2.59688        2.62445       -0.34719
H          4.79365       -2.15179       -0.50921
H          3.44268       -3.23086       -0.32572
H          1.27204       -2.58647       -0.39491
H         -0.00637       -2.35808        1.46506
H         -1.67236       -2.83154        1.37431
