29
Coordinates from ORCA-job ./opt_b97-3c_parallel
N         -6.04808        0.38032        0.05331
C         -4.92204        0.18341        0.05379
C         -3.49949       -0.05262        0.04478
C         -3.09284       -1.38071        0.02278
C         -1.80623       -1.90408        0.01660
C         -0.56315       -1.26874        0.01802
N          0.48182       -2.14739        0.01041
C          1.75602       -1.70401       -0.00110
N          2.74604       -2.64275       -0.00094
C          2.02155       -0.34257       -0.01208
C          3.26556        0.35325       -0.04501
N          4.62545        0.26304       -0.10752
N          2.49218        1.18115       -0.02615
C          1.57869        1.85015       -0.02340
N          1.65852        3.21181       -0.05992
C          1.00436        0.54204        0.00088
C         -0.33977        0.13130        0.02237
C         -1.29939        1.14935        0.04599
C         -2.68582        1.07307        0.06017
H         -3.88633       -2.12637        0.01186
H         -1.77790       -2.99283        0.00487
H          2.49373       -3.60356        0.20105
H          3.69047       -2.34358        0.21322
H          5.05630       -0.63432       -0.29944
H          5.17323        1.09859       -0.27809
H          0.82237        3.75984       -0.22587
H          2.55756        3.65609       -0.20961
H         -0.93087        2.17125        0.05852
H         -3.19559        2.03523        0.08153
