27
Coordinates from ORCA-job ./opt_b97-3c_parallel
N         -2.25671       -2.77832       -0.01062
C         -1.31486       -1.78763       -0.01111
C          0.04470       -2.09305        0.00794
C          1.03976       -1.09360        0.00892
C          2.34500       -1.59702        0.02066
C          3.56231       -0.92823        0.02677
C          3.80380        0.43576        0.03176
C          2.87672        1.46492        0.02603
C          1.49043        1.38819        0.00612
C          0.65048        0.26747       -0.00550
C         -0.73124        0.52888       -0.03262
C         -1.42395        1.77840       -0.07702
N         -1.70369        3.11168       -0.13553
N         -2.27281        1.03330       -0.07217
C         -2.96829        0.14113       -0.06649
C         -1.66877       -0.44615       -0.03417
H         -3.22021       -2.53449       -0.21058
H         -1.96004       -3.73332       -0.17754
H          0.33124       -3.14309        0.02217
H          2.44710       -2.68026        0.02310
H          4.44673       -1.56116        0.03113
H          4.84922        0.73571        0.04209
H          3.29144        2.47029        0.03568
H          1.01283        2.36355        0.00291
H         -0.95680        3.76915       -0.32758
H         -2.65729        3.41329       -0.30043
H         -3.91210       -0.28600        0.24916
