25
Coordinates from ORCA-job ./opt_b97-3c_parallel
N         -0.47126       -3.04176        0.10611
C          0.08326       -1.79151        0.05895
C          1.47548       -1.69091        0.04841
C          2.03456       -0.42424        0.01405
C          3.37182       -0.06625       -0.01096
C          3.42000        1.32151       -0.03911
C          2.11723        1.80838       -0.02806
C          1.25661        0.71472        0.00540
C         -0.14234        0.65638        0.02518
C         -0.87418        1.85926        0.04927
C         -2.26463        1.97788        0.08874
C         -3.17198        0.86275        0.08716
N         -3.10185       -0.22878       -0.05472
C         -2.15851       -0.80046       -0.00923
C         -0.72573       -0.63406        0.03180
H         -1.44473       -3.12141        0.37845
H          0.13704       -3.82818        0.30436
H          2.10651       -2.57637        0.06493
H          4.22339       -0.74229       -0.01075
H          4.32343        1.92547       -0.06637
H          1.84089        2.85844       -0.04849
H         -0.32901        2.79770        0.05563
H         -2.72767        2.96039        0.12608
H         -4.25598        0.87993        0.06977
H         -2.72863       -1.54680       -0.55209
