34
Coordinates from ORCA-job ./opt_b97-3c_parallel
N         -4.81863       -3.15186        0.03030
C         -4.00949       -2.34416        0.01893
C         -2.99659       -1.31124        0.00338
C         -1.72388       -1.96034       -0.03267
N         -0.82911       -1.34290       -0.00065
C         -0.15770       -0.19033        0.02955
C         -0.87284        1.03240        0.01500
C         -0.11241        2.22472        0.06232
C          1.27400        2.23500        0.10790
N          1.95098        3.41795        0.19383
C          2.00594        1.00992        0.07008
C          3.23620        0.26580       -0.00603
N          4.23616        1.17269       -0.22825
C          3.50239       -1.14476        0.11339
C          4.71773       -1.89884        0.09575
N          5.70855       -2.18763       -0.39436
C          2.08024       -1.34568        0.09731
N          1.67361       -2.65374        0.12254
C          1.25840       -0.21217        0.06706
C         -2.30387        1.12681       -0.02743
C         -2.88376        2.46150       -0.08731
N         -3.34900        3.50466       -0.14535
C         -3.26426        0.06985       -0.01628
N         -4.60613        0.39306       -0.01579
H         -1.48413       -3.00641        0.12125
H         -0.57782        3.20534        0.08276
H          1.42879        4.26027        0.40898
H          2.93166        3.39211        0.45230
H          5.15626        0.82822       -0.48188
H          3.98255        2.11225       -0.51405
H          2.35934       -3.38251       -0.04326
H          0.69830       -2.86038       -0.06247
H         -4.88596        1.35473       -0.17926
H         -5.29360       -0.34088       -0.15140
