28
Coordinates from ORCA-job ./opt_b97-3c_parallel
N          4.73487        1.22590        0.28914
C          3.75167        0.65807        0.15710
C          2.50510       -0.07451        0.00859
C          2.72280       -1.40879       -0.30176
C          1.80209       -2.42974       -0.38768
C          0.43629       -2.38414       -0.18847
C         -0.42861       -1.29308        0.00456
C         -1.80527       -1.63919        0.14721
N         -2.24959       -2.93058        0.27781
C         -2.80664       -0.67552        0.17534
C         -2.45617        0.64786        0.03587
N         -3.30491        1.69333       -0.04955
C         -2.67125        2.60628       -0.20671
C         -1.24526        2.39927       -0.22963
C         -1.14004        0.99560       -0.02334
C         -0.05100        0.08393        0.03317
C          1.27265        0.59976        0.15569
N          1.40102        1.91252        0.54568
H          3.75582       -1.72133       -0.44830
H          2.21462       -3.41391       -0.59987
H          0.00534       -3.37691       -0.26523
H         -3.20694       -3.07629        0.57721
H         -1.57373       -3.64699        0.51456
H         -3.85394       -0.95542        0.26024
H         -3.23757        3.51388       -0.37688
H         -0.50217        3.14923       -0.47614
H          2.31614        2.23848        0.84019
H          0.59233        2.37109        0.94947
