33
Coordinates from ORCA-job ./opt_b97-3c_parallel
N          5.45994       -1.61220       -0.46551
C          4.48761       -1.03704       -0.28997
C          3.24620       -0.31298       -0.08846
C          2.11448       -1.12161       -0.02859
C          0.73907       -0.83534        0.09243
C         -0.09636       -1.99032        0.18054
N          0.37603       -3.27123        0.31535
C         -1.47914       -1.89713        0.16144
C         -2.02932       -0.64548        0.05528
C         -3.39263       -0.27735       -0.02804
C         -4.55411       -1.11082       -0.03554
N         -5.46736       -1.77843       -0.19859
C         -3.20783        1.15085       -0.11697
N         -4.26724        2.00178       -0.24211
N         -2.15370        1.53012       -0.08613
C         -1.28633        0.49419        0.02887
C          0.13881        0.46489        0.09294
C          0.85029        1.69712        0.17226
N          0.18763        2.89110        0.30379
C          2.22641        1.93135        0.19155
C          3.30403        1.07231        0.05529
N          4.53052        1.69196        0.07017
H          2.38288       -2.16907       -0.12595
H         -0.28269       -4.00167        0.56275
H          1.34098       -3.40148        0.59858
H         -2.11156       -2.78149        0.21281
H         -4.10104        2.98126       -0.44443
H         -5.19486        1.62899       -0.41283
H          0.70688        3.75616        0.20814
H         -0.81545        2.92065        0.16014
H          2.51510        2.97800        0.30219
H          5.36248        1.15630       -0.15558
H          4.58107        2.70442        0.05129
