32
Coordinates from ORCA-job ./opt_b97-3c_parallel
N          3.10130        3.22230        0.29292
C          2.66879        2.16714        0.20470
C          2.13527        0.81252        0.09826
C          3.11915       -0.17947        0.30904
N          4.40899        0.17987        0.63238
C          2.98979       -1.54905        0.17260
C          1.88628       -2.27757       -0.20330
C          0.56929       -1.87073       -0.37216
C         -0.21076       -2.94977       -0.94939
N         -0.80570       -3.81058       -1.41066
C          0.00099       -0.58192       -0.19102
C          0.73145        0.64806       -0.12773
C         -0.02028        1.84459       -0.28222
C         -1.39108        1.88350       -0.46690
N         -2.03378        3.07144       -0.66968
C         -2.15186        0.68603       -0.43530
C         -3.38134        0.17912        0.11971
N         -4.40249        1.04152        0.40220
C         -3.66065       -1.19101        0.45389
C         -2.25844       -1.47436        0.42151
C         -1.42081       -0.50119       -0.11943
H          5.14394       -0.51528        0.56450
H          4.67245        1.15850        0.57489
H          3.89207       -2.14305        0.31489
H          2.09862       -3.33523       -0.36159
H          0.43856        2.82742       -0.29740
H         -1.47968        3.89011       -0.89852
H         -2.99662        3.04682       -0.98708
H         -4.20030        2.03548        0.41548
H         -5.18377        0.70776        0.95540
H         -4.35426       -1.54678        1.20901
H         -1.89208       -2.37655        0.90387
