26
Coordinates from ORCA-job ./opt_b97-3c_parallel
N         -0.83452        4.45364       -0.03093
C         -0.48546        3.36529       -0.02332
C         -0.03254        1.99300       -0.02494
C          1.34783        1.80429       -0.02064
C          1.83303        0.50859       -0.02127
C          3.19350        0.08710       -0.00329
N          4.43487        0.64718        0.04332
N          2.58892       -0.86543       -0.02392
C          1.85073       -1.71950       -0.03858
C          1.00856       -0.56346       -0.03945
C         -0.39605       -0.43883       -0.05012
C         -1.22069       -1.58607       -0.09135
C         -0.80361       -2.96635       -0.16531
N         -0.48843       -4.06338       -0.22884
C         -2.66024       -1.58399       -0.11451
N         -3.51522       -0.90033        0.01458
C         -3.36178        0.18907        0.06333
C         -2.30272        1.15836        0.00244
C         -0.92128        0.88770       -0.02583
H          2.03445        2.64867       -0.01333
H          5.25818        0.06201       -0.04405
H          4.54314        1.65049       -0.05320
H          1.98336       -2.46348        0.73789
H         -3.34341       -2.42464       -0.18671
H         -4.39126        0.34046        0.36925
H         -2.73171        2.15684        0.02339
