28
Coordinates from ORCA-job ./opt_b97-3c_parallel
N         -5.23291        1.10343       -0.04306
C         -4.13529        0.78540       -0.02627
C         -2.74335        0.40332       -0.00505
C         -1.78546        1.42197       -0.01581
C         -0.38881        1.27131       -0.00234
C          0.35664        2.46445       -0.00919
N          1.70741        2.52056        0.00379
C          2.30918        1.32080        0.02478
C          3.68693        1.04272        0.04256
C          3.65615       -0.40138        0.06060
N          4.82045       -1.11176        0.07371
N          2.63699       -0.88673        0.05899
C          1.70709        0.09940        0.03397
C          0.30407        0.03540        0.01687
C         -0.41123       -1.22532        0.02248
N          0.15079       -2.46707       -0.10547
N         -1.45725       -1.58353        0.02920
C         -2.39435       -0.99749        0.02799
N         -3.30917       -2.01454        0.09305
H         -2.16839        2.44091       -0.03532
H         -0.13627        3.43520       -0.02341
H          4.54741        1.70378        0.03523
H          5.70687       -0.63234        0.18595
H          4.79826       -2.11787        0.19592
H          1.15837       -2.56554       -0.03469
H         -0.41888       -3.29599        0.02146
H         -3.00668       -2.97643       -0.01064
H         -4.29834       -1.80919        0.00195
