30
Coordinates from ORCA-job ./opt_b97-3c_parallel
N         -3.25294        3.44083        0.14606
C         -2.78902        2.39683        0.10678
C         -2.21641        1.07213        0.04039
C         -3.24601        0.08201       -0.13592
N         -3.35832       -1.01654       -0.10105
C         -2.51623       -1.72038        0.00250
N         -3.19170       -2.82830        0.42858
C         -1.08250       -1.67790       -0.10556
C         -0.31243       -0.50793       -0.04636
C         -0.83387        0.81149        0.06361
N          0.00572        1.88443        0.17496
C          1.34556        1.70842        0.15927
N          2.12163        2.82266        0.29057
C          1.88862        0.43760        0.01136
C          3.24736        0.01232       -0.05527
N          4.54413        0.43658       -0.07349
N          2.65305       -0.94997       -0.13473
C          1.90197       -1.79451       -0.22505
N          2.11460       -3.12771       -0.41853
C          1.08033       -0.63583       -0.08731
H         -4.23021        0.20097       -0.57546
H         -2.68192       -3.63163        0.77838
H         -4.18652       -2.77235        0.61770
H         -0.62253       -2.65901       -0.18783
H          1.67408        3.68355        0.58450
H          3.10331        2.69908        0.51170
H          4.74151        1.42631       -0.17013
H          5.27955       -0.21874       -0.31307
H          1.33781       -3.72566       -0.67752
H          3.05264       -3.45970       -0.61174
