25
Coordinates from ORCA-job ./opt_b97-3c_parallel
N          4.84987        2.69163        0.00145
C          3.96259        1.97140        0.00135
C          2.83179        1.07543        0.00091
C          3.13157       -0.28178        0.00051
C          2.25983       -1.36515        0.00015
C          2.88248       -2.66685       -0.00032
N          3.38811       -3.69176       -0.00070
C          0.86634       -1.35268       -0.00002
C         -0.02387       -0.27160        0.00031
C          0.30348        1.10419        0.00084
C         -0.74527        2.04611        0.00103
N         -2.05942        1.73806        0.00062
C         -2.31737        0.42308        0.00007
C         -3.58168       -0.20006       -0.00040
C         -4.94005        0.24007       -0.00039
N         -5.97737        0.72033        0.00052
C         -3.11014       -1.56683       -0.00077
N         -2.00474       -1.78872       -0.00065
C         -1.39613       -0.58025       -0.00007
C          1.57687        1.67777        0.00116
H          4.19365       -0.52979        0.00057
H          0.41517       -2.34343       -0.00038
H         -0.54238        3.11649        0.00147
H         -3.67915       -2.48880       -0.00106
H          1.59872        2.76746        0.00164
