26
Coordinates from ORCA-job ./opt_b97-3c_parallel
N          4.44203        1.76468       -0.56346
C          3.80210        0.85286       -0.30773
C          2.58865        0.13125       -0.05366
C          1.51446        0.97421        0.18993
C          0.10541        0.61367        0.20449
C         -0.73538        1.79999        0.28518
N         -0.92848        2.88227        0.37301
N         -2.07902        1.68516        0.18059
C         -2.64743        0.48429       -0.01158
N         -3.97298        0.15454       -0.12023
C         -3.98318       -1.23214       -0.26786
N         -2.69488       -1.76560       -0.24580
C         -1.86967       -0.67971       -0.09382
C         -0.49806       -0.63150        0.03087
C          0.20642       -1.88445        0.03042
C          1.48541       -2.05653        0.43807
C          2.50636       -1.30134       -0.03834
N          3.30040       -2.03817       -0.25735
H          1.70675        2.04367        0.25222
H         -1.31957        3.77957        0.08729
H         -0.01097        3.08346        0.76832
H         -4.91052       -1.81671       -0.37539
H         -0.35950       -2.79132       -0.15592
H          1.64576       -2.67853        1.32214
H          4.16376       -1.50986       -0.37583
H          3.57488       -3.00348       -0.08236
