28
Coordinates from ORCA-job ./opt_b97-3c_parallel
N         -4.87473        1.39296       -0.04792
C         -3.81590        0.96519        0.00540
C         -2.57713        0.25173       -0.00347
C         -2.24641       -1.15295       -0.01998
N         -3.21602       -2.11313       -0.03467
N         -1.15960       -1.42795       -0.02327
C         -0.40266       -0.30315       -0.01412
C         -1.25782        0.76140       -0.00147
C         -0.83595        2.07110        0.00831
C          0.53055        2.28608        0.00696
C          1.46235        1.22749       -0.00236
C          2.77688        1.71167       -0.00115
C          3.98723        1.04267       -0.00094
C          4.20573       -0.31784       -0.00307
C          3.26305       -1.32841       -0.01632
C          1.86731       -1.27104       -0.02753
N          1.35263       -2.54143       -0.06145
C          1.01381       -0.12903       -0.01437
H         -2.95940       -3.08197       -0.18640
H         -4.18592       -1.84749       -0.16674
H         -1.54081        2.89915        0.01615
H          0.86573        3.32136        0.01404
H          2.90168        2.79278        0.00255
H          4.87779        1.66717        0.00251
H          5.24622       -0.63447        0.00098
H          3.70544       -2.32422       -0.02199
H          1.97184       -3.33477        0.05785
H          0.35575       -2.68149        0.05694
