29
Coordinates from ORCA-job ./opt_b97-3c_parallel
N         -5.90659        0.52116       -0.05442
C         -4.77692        0.34848       -0.05460
C         -3.35184        0.12138       -0.04209
C         -2.93349       -1.19874       -0.06629
C         -1.63999       -1.69985       -0.05576
C         -0.40101       -1.04717       -0.01445
C          0.67415       -1.95085        0.00923
C          1.99553       -1.53866        0.04812
N          3.00945       -2.45124        0.10485
C          2.28950       -0.14439        0.03161
C          3.29142        0.89012        0.01386
N          4.57669        0.49198       -0.22209
C          3.06790        2.29426        0.22825
C          1.65134        2.09738        0.16578
C          1.19674        0.78422        0.06739
C         -0.15567        0.34972        0.01912
C         -1.15437        1.34060        0.01220
C         -2.54120        1.24622       -0.01110
H         -3.71754       -1.95416       -0.09546
H         -1.61512       -2.78755       -0.07900
H          0.48569       -3.02282        0.00536
H          2.78139       -3.41267        0.33094
H          3.93606       -2.11656        0.34541
H          4.73318       -0.44595       -0.57540
H          5.28201        1.19627       -0.40549
H          3.60800        3.11186       -0.23804
H          1.03166        2.98400        0.23136
H         -0.84572        2.37537        0.02263
H         -3.05918        2.20415       -0.00336
