28
Coordinates from ORCA-job ./opt_b97-3c_parallel
N         -1.96383       -3.47864       -0.92832
C         -1.22186       -2.68452       -0.57434
C         -0.26501       -1.68108       -0.16184
C          1.04663       -2.16064       -0.09610
C          2.07733       -1.25285        0.06046
C          3.48138       -1.48598        0.11419
N          3.37429       -0.35651        0.11004
C          3.09629        0.73976        0.10844
N          3.57006        2.01617        0.18375
C          1.83745        0.06920        0.04225
C          0.54746        0.59897       -0.06177
N          0.42415        1.92364       -0.18313
C         -0.20496        2.80126       -0.32015
C         -1.62417        2.66057       -0.39217
C         -2.37749        1.52444       -0.08996
N         -3.72638        1.78102       -0.02235
C         -1.89841        0.20074        0.12084
C         -2.87521       -0.68472        0.73703
N         -3.63941       -1.36042        1.25380
C         -0.56195       -0.28365       -0.04316
H          1.26559       -3.22193       -0.19891
H          4.00799       -2.42503        0.23595
H          4.56596        2.19585        0.13715
H          2.92948        2.79208        0.05609
H          0.40261        3.66324       -0.56737
H         -2.09934        3.62158       -0.58123
H         -4.34049        1.06573        0.35456
H         -4.04460        2.74332       -0.00130
