29
Coordinates from ORCA-job ./opt_b97-3c_parallel
N         -2.59598       -3.60794       -0.19128
C         -1.90363       -2.70037       -0.13060
C         -1.04127       -1.54169       -0.05964
C          0.36454       -1.62855       -0.04053
N          0.89766       -2.88750       -0.17849
C          1.17504       -0.44996        0.04025
C          2.59843       -0.50848        0.17239
N          3.26046       -1.66270        0.49684
C          3.46185        0.58747        0.06152
C          3.07093        1.92590       -0.28522
N          2.16186        2.54349       -0.20694
C          1.19967        2.07047        0.05087
C          0.50625        0.80696        0.01525
C         -0.88749        0.86089       -0.00262
N         -1.69323        1.94907        0.00841
C         -2.75806        1.57910        0.00469
N         -3.82720        2.42346        0.04877
C         -2.95109        0.14869       -0.02631
C         -1.60989       -0.28285       -0.02170
H          1.86501       -2.95773       -0.47521
H          0.27424       -3.64281       -0.44392
H          2.71187       -2.43034        0.87008
H          4.22349       -1.58897        0.80573
H          4.53533        0.48269        0.20600
H          3.70364        2.75163       -0.59060
H          0.79407        3.06590       -0.09948
H         -3.68457        3.42546       -0.01229
H         -4.77054        2.06149       -0.03349
H         -3.88170       -0.41000       -0.00871
