25
Coordinates from ORCA-job ./opt_b97-3c_parallel
N          3.40478        2.83610        0.00192
C          2.90194        1.80907        0.00247
C          2.28627        0.49318        0.00229
C          3.24080       -0.52512       -0.01146
C          3.07509       -1.89880       -0.01616
C          1.89354       -2.61353       -0.00795
C          0.59533       -2.13057        0.00559
C          0.11882       -0.81370        0.01450
C          0.87352        0.39624        0.01380
N          0.21288        1.59924        0.02475
C         -1.13255        1.67719        0.03317
C         -1.88922        0.52258        0.03036
C         -3.30558        0.37305        0.03247
N         -4.35807        1.23931        0.01898
N         -2.90204       -0.68366        0.03479
C         -2.33025       -1.65916        0.03011
C         -1.28469       -0.68143        0.02375
H          4.28398       -0.21035       -0.01994
H          3.98880       -2.48873       -0.02753
H          1.99669       -3.69638       -0.01367
H         -0.14246       -2.92579        0.00871
H         -1.57736        2.66996        0.04159
H         -5.29752        0.88568       -0.12188
H         -4.19211        2.22838       -0.12936
H         -2.28323       -2.73939       -0.02162
