34
Coordinates from ORCA-job ./opt_b97-3c_parallel
N          3.38789        3.94413        0.66095
C          2.98916        2.89191        0.45909
C          2.47201        1.55467        0.22124
C          1.08523        1.52540        0.11274
C          0.17806        0.46194        0.02100
C          0.50853       -0.91608       -0.01488
C         -0.56695       -1.82931        0.12301
C         -1.89690       -1.44333        0.19555
C         -2.90771       -2.45773        0.37349
N         -3.69928       -3.26705        0.52908
C         -2.21213       -0.09894        0.07995
C         -3.56561        0.39268        0.07515
C         -4.94489        0.03409       -0.04861
N         -6.02752       -0.06042        0.30660
C         -3.04836        1.72732       -0.10111
N         -3.83767        2.80672       -0.39156
C         -1.68272        2.18127       -0.12241
C         -1.19300        0.83202       -0.00377
C          1.79962       -1.48142       -0.20290
N          1.82425       -2.83093       -0.50446
C          3.07406       -0.85859       -0.16126
C          4.23172       -1.72668       -0.38145
N          5.13208       -2.40714       -0.56661
C          3.38034        0.49201        0.10626
N          4.71716        0.82734        0.23219
H          0.65060        2.51752        0.18909
H         -0.40129       -2.90004        0.21053
H         -3.44141        3.73919       -0.35806
H         -4.84500        2.70795       -0.31080
H         -1.28360        2.93057       -0.80090
H          2.69716       -3.23725       -0.82560
H          0.96743       -3.26927       -0.82256
H          4.96452        1.74603        0.58503
H          5.40585        0.08550        0.30728
