28
Coordinates from ORCA-job ./opt_b97-3c_parallel
N         -2.81171       -3.73986       -0.17001
C         -2.36940       -2.68756       -0.11421
C         -1.82923       -1.34904       -0.03810
C         -2.89629       -0.42255        0.21937
N         -3.08346        0.66403        0.18292
C         -2.25867        1.36503       -0.02407
N         -3.13837        2.40314       -0.21640
C         -0.80907        1.44267       -0.04551
C         -0.36982        2.79770       -0.30363
N         -0.04616        3.87221       -0.52509
C          0.04128        0.30696       -0.03004
C         -0.45817       -1.03342       -0.10002
N          0.38216       -2.10154       -0.23495
C          1.71731       -1.93075       -0.26142
C          2.25866       -0.66865       -0.11007
C          3.58664       -0.29363       -0.01661
N          4.60151       -1.20413       -0.09899
C          3.71391        1.13066        0.20293
C          2.31144        1.49879        0.22398
C          1.45117        0.42619        0.00919
H         -3.83234       -0.59705        0.73929
H         -4.13016        2.27784       -0.04393
H         -2.78788        3.34747       -0.33692
H          2.32872       -2.82581       -0.35699
H          5.54034       -0.91485        0.15296
H          4.37977       -2.19302       -0.07397
H          4.50789        1.62953        0.74940
H          1.99901        2.49849        0.49869
