34
Coordinates from ORCA-job ./opt_b97-3c_parallel
N         -5.76349        1.68713       -0.48194
C         -4.81329        1.08111       -0.29012
C         -3.59869        0.31971       -0.06649
C         -2.43674        1.09398       -0.03803
C         -1.06902        0.75880        0.07285
C         -0.15657        1.84845        0.11281
N         -0.59344        3.15189        0.19924
C          1.23043        1.64325        0.09223
C          2.14570        2.76598        0.16216
N          2.85559        3.65943        0.22735
C          1.72659        0.34640       -0.00926
C          3.13321        0.05092       -0.12969
C          4.28479        0.59902       -0.78605
N          5.34904        0.91147       -0.50858
C          2.79563       -1.34649        0.00839
N          3.90596       -2.11777        0.24055
C          1.51749       -2.01061       -0.10451
C          1.42912       -3.20044       -0.90095
N          1.29483       -4.29801       -0.60551
C          0.85867       -0.73073        0.02054
C         -0.54389       -0.55689        0.11909
C         -1.29823       -1.72992        0.28393
C         -2.66634       -1.94786        0.31559
C         -3.71211       -1.06034        0.12405
N         -4.95708       -1.63929        0.13844
H         -2.66788        2.14702       -0.16581
H         -1.55656        3.32774        0.46208
H          0.08742        3.87715        0.40122
H          4.81449       -1.69645        0.07232
H          3.82687       -3.11785        0.08658
H         -0.76142       -2.65604        0.44655
H         -2.94849       -2.98694        0.47918
H         -5.75638       -1.08901       -0.15914
H         -5.03176       -2.64987        0.10457
