34
Coordinates from ORCA-job ./opt_b97-3c_parallel
N          4.28857       -3.04542        0.89180
C          3.54493       -2.22289        0.61375
C          2.58763       -1.18115        0.27811
C          1.28560       -1.65079        0.17601
C          0.05535       -1.00832       -0.03995
C         -1.04935       -1.90352       -0.20241
N         -0.87697       -3.25017       -0.43306
C         -2.36818       -1.44646       -0.17734
C         -3.51753       -2.31540       -0.31496
N         -4.42926       -2.99385       -0.43362
C         -2.54934       -0.09945        0.01117
C         -3.74632        0.64542        0.11624
C         -3.24431        1.98622        0.25633
N         -4.09712        3.04005        0.39574
N         -2.12337        2.01096        0.22977
C         -1.53158        0.79882        0.07250
C         -0.15954        0.40447       -0.01638
C          0.86174        1.40439       -0.12175
N          0.45449        2.71996       -0.21041
C          2.27408        1.25552       -0.22443
C          3.04671        2.45635       -0.55753
N          3.65147        3.38725       -0.83067
C          3.05686        0.10789        0.01128
N          4.43366        0.25071       -0.00511
H          1.24379       -2.72334        0.34414
H          0.03159       -3.57270       -0.74734
H         -1.68615       -3.79517       -0.71308
H         -4.78186        0.31983        0.11266
H         -5.09391        2.90546        0.26960
H         -3.73378        3.98608        0.36172
H          1.15386        3.45185       -0.14586
H         -0.49383        2.96331        0.04604
H          4.85249        1.15385       -0.20217
H          5.03360       -0.54898        0.16921
