25
Coordinates from ORCA-job ./opt_b97-3c_parallel
N         -2.91878       -1.95207        0.10428
C         -2.63395       -0.88288        0.00468
C         -3.67851       -0.00670       -0.07372
C         -3.00595        1.17185        0.00625
N         -1.88458        1.96661        0.08578
C         -0.63791        1.34780        0.10567
N          0.36169        2.31170        0.18165
C          1.67443        1.88359        0.19957
C          2.01833        0.49810        0.08419
C          3.09128       -0.46566       -0.06545
N          4.06103        0.04727       -0.16904
C          2.74528       -1.77732       -0.11254
C          1.43830       -1.83150       -0.01286
C          1.01090       -0.54266        0.07557
C         -0.36691       -0.09585        0.07044
N         -1.30390       -1.07826        0.05553
H         -3.91239       -2.19479        0.06345
H         -2.46249       -2.84221        0.32020
H         -4.48114       -0.13123       -0.80205
H         -3.68767        2.03835       -0.00445
H          2.60272        2.47335        0.26785
H          4.68884       -0.74961       -0.27464
H          4.66053        0.87131       -0.13721
H          3.42243       -2.62434       -0.21470
H          0.83441       -2.73637       -0.02008
