24
Coordinates from ORCA-job ./opt_b97-3c_parallel
N         -2.59272       -2.08995       -0.37528
C         -2.24869       -1.07475       -0.11887
C         -3.15273        0.03401       -0.18067
C         -2.74396        1.31263        0.14057
N         -1.56727        1.95335        0.30472
C         -0.32887        1.32783        0.17958
N          0.66208        2.29934        0.09083
C          1.96538        1.87689       -0.06714
C          2.29234        0.49342       -0.19932
C          3.37443       -0.47014       -0.17327
C          3.02596       -1.77858       -0.08774
C          1.71850       -1.82390        0.00392
C          1.29263       -0.53503       -0.02322
C         -0.07536       -0.10314        0.18178
C         -1.03475       -1.01636        0.48392
H         -3.59658       -2.24535       -0.47195
H         -2.17014       -3.01745       -0.33919
H         -4.18617       -0.16168       -0.45486
H         -3.53270        2.08075        0.15417
H          2.86090        2.51168       -0.14961
H          4.41849       -0.17060       -0.18927
H          3.70335       -2.62983       -0.10610
H          1.10815       -2.72121        0.07150
H         -0.86866       -1.63945        1.36324
