31
Coordinates from ORCA-job ./opt_b97-3c_parallel
N         -5.83157        0.50393        0.31591
C         -4.82946       -0.02670        0.17327
C         -3.41018       -0.12519        0.04285
C         -2.80598       -1.44316       -0.01322
C         -1.42839       -1.37032       -0.04624
C         -0.51526       -2.40453       -0.10987
C          0.84425       -2.08992       -0.12246
C          1.74027       -3.22253       -0.19419
N          2.44744       -4.11755       -0.26495
C          1.29037       -0.73973       -0.06297
C          2.68523       -0.49543       -0.01658
C          3.38925        0.71370        0.09573
N          4.75012        0.62393        0.19817
C          2.85304        2.00086        0.12263
C          1.46922        2.33608       -0.02408
N          1.05903        3.61623       -0.25875
N          0.66750        1.59199       -0.01500
C          0.32096        0.29527       -0.02763
C         -1.03616       -0.06812       -0.01375
C         -2.20433        0.68835        0.03369
N         -2.24243        2.05348        0.07280
H         -3.30177       -2.41143       -0.02627
H         -0.85417       -3.43834       -0.14645
H          3.34355       -1.35849       -0.03631
H          5.16407       -0.28361        0.38195
H          5.27191        1.44793        0.47590
H          3.50601        2.86525        0.22679
H          1.75123        4.33420       -0.43773
H          0.10543        3.79297       -0.55524
H         -3.11977        2.50868        0.30033
H         -1.37838        2.55404        0.24926
