29
Coordinates from ORCA-job ./opt_b97-3c_parallel
N          5.23856       -0.31153       -0.52726
C          4.12593       -0.52822       -0.36733
C          2.73613       -0.76567       -0.13923
C          2.56042       -2.12568       -0.03728
C          1.23124       -2.12440        0.31812
C          0.64158       -3.42254        0.21611
N          0.12228       -4.43691        0.12888
C          0.53188       -0.86955        0.33128
C          1.53926        0.00380        0.01245
C          1.34119        1.37214       -0.17700
C          2.42967        2.25597       -0.50729
N          3.28072        2.97275       -0.76652
C          0.06062        1.90651       -0.01883
C         -1.05213        1.11177        0.29245
C         -2.25022        1.87463        0.56243
N         -2.70722        2.85905        0.76020
N         -3.52388        1.50242        0.17991
C         -3.61399        0.17319       -0.15665
N         -4.59964       -0.14688       -0.53456
N         -3.11685       -1.10009       -0.28499
C         -1.78597       -1.32056        0.04766
C         -0.79994       -0.31852        0.39609
H          3.27906       -2.77069        0.46961
H         -0.06453        2.98466       -0.12311
H         -3.41573        3.54087        1.03023
H         -1.83079        3.18344        1.16691
H         -5.05551       -0.99980       -0.85789
H         -5.06459        0.62155       -1.01674
H         -1.97641       -2.38897       -0.13687
