31
Coordinates from ORCA-job ./opt_b97-3c_parallel
N         -4.38658       -1.60004       -0.09390
C         -3.18745       -0.94348       -0.05875
C         -3.23785        0.45047       -0.09642
C         -2.09767        1.31380       -0.04350
N         -2.19025        2.66433        0.12284
N         -1.05334        0.99345       -0.01831
C         -0.18971       -0.03283        0.02295
C         -0.67320       -1.36029        0.04603
C          0.22967       -2.43066        0.10202
C          1.60166       -2.23300        0.13792
C          2.12415       -0.90211        0.11921
C          3.27093       -0.03244        0.08214
N          4.41799       -0.77330        0.03710
C          3.28360        1.40636        0.08072
C          1.85281        1.43646        0.02464
N          1.25753        2.66487       -0.06562
C          1.20483        0.19935        0.05275
C         -2.03139       -1.73691        0.01139
H         -4.39174       -2.60250       -0.24623
H         -5.22488       -1.07666       -0.32108
H         -4.19472        0.96546       -0.15372
H         -1.36203        3.18960        0.37928
H         -3.09319        3.08221        0.31631
H         -0.13646       -3.45486        0.11743
H          2.27616       -3.08432        0.17873
H          4.36107       -1.77051        0.21215
H          5.30654       -0.30932        0.18987
H          3.96167        2.02580       -0.49746
H          1.83221        3.46784       -0.29420
H          0.27370        2.69590       -0.31297
H         -2.22304       -2.80825        0.03593
