28
Coordinates from ORCA-job ./opt_b97-3c_parallel
N          1.41054        4.41267       -0.11049
C          1.25146        3.28151       -0.08051
C          1.06162        1.84851       -0.05587
C          2.22390        1.08315       -0.05658
C          2.10043       -0.29328       -0.03037
C          3.15072       -1.25519        0.00069
N          4.51161       -1.32389        0.02676
N          2.19786       -1.85666        0.00955
C          1.16481       -2.30924        0.01557
C          0.89219       -0.90466       -0.02729
C         -0.32647       -0.18865       -0.03967
C         -1.56998       -0.87287       -0.07586
C         -1.72100       -2.30729       -0.21395
N         -1.85675       -3.43701       -0.33125
C         -2.85936       -0.20747       -0.06619
N         -4.08941       -0.81530        0.00911
N         -3.32202        0.78937        0.01242
C         -2.71205        1.70134        0.11296
C         -1.33621        2.09227        0.00938
C         -0.21903        1.23710       -0.02835
H          3.20797        1.54708       -0.06834
H          4.97341       -2.22320       -0.04898
H          5.06399       -0.48555       -0.11261
H          0.97719       -3.01333        0.81742
H         -4.16017       -1.81786       -0.12763
H         -4.93612       -0.26390       -0.08002
H         -3.53887        2.25960        0.53836
H         -1.28380        3.17778        0.02011
