28
Coordinates from ORCA-job ./opt_b97-3c_parallel
N         -4.09216       -1.16162        0.08329
C         -3.02013       -0.88126       -0.01183
C         -2.02591       -1.83474       -0.05439
C         -0.60299       -1.47729       -0.11203
N         -0.13034       -2.47814       -0.15919
C         -0.00714       -0.20401       -0.07694
C         -0.69091        1.09425       -0.06084
C          0.09565        2.31984       -0.02373
N          1.44249        2.28921        0.00342
C          2.11453        1.13020       -0.01133
N          3.47236        0.91207        0.01395
C          3.65105       -0.47336       -0.01572
N          4.61534       -1.01608       -0.00671
N          2.40200       -1.10508       -0.05779
C          1.45183       -0.10653       -0.05741
C         -2.06798        1.24681       -0.09040
N         -2.81253        2.07573       -0.12904
N         -3.05412        0.41092       -0.07275
H         -5.06015       -0.83181        0.04194
H         -4.19167       -2.14951        0.33292
H         -2.33554       -2.88635       -0.03459
H          0.73236       -2.74966       -0.63157
H         -0.59398       -3.36730        0.03746
H          0.13459        3.42126        0.00128
H          4.80799       -2.00274       -0.19362
H          5.53357       -0.60758        0.18491
H         -3.56105        2.42530        0.47704
H         -2.88667        2.66423       -0.96588
