22
Coordinates from ORCA-job ./opt_b97-3c_parallel
N          2.56269        2.38696       -0.26625
C          1.62500        1.40837       -0.09269
C          0.24408        1.81736        0.04670
C         -0.80743        0.81572        0.05882
N         -1.97394        1.47877        0.25375
C         -3.19023        0.88502        0.22733
N         -3.62006       -0.39852       -0.07840
C         -2.67426       -1.37668       -0.22723
N         -1.40544       -1.49552       -0.08014
C         -0.51517       -0.54814       -0.09528
C          0.86648       -0.93468       -0.22145
C          1.44374       -2.19814        0.08332
N          2.32652       -1.49173        0.02047
C          3.07576       -0.64508        0.09326
C          1.89721       -0.00613       -0.15821
H          3.54485        2.13666       -0.23642
H          2.30473        3.35299       -0.09799
H          0.00273        2.87674        0.08828
H         -4.02114        1.59011        0.37836
H         -3.24056       -2.28111       -0.49476
H          0.95949       -3.16064        0.30553
H          4.08566       -0.26392        0.30560
