31
Coordinates from ORCA-job ./opt_b97-3c_parallel
N          4.87604        2.14617       -0.40576
C          4.02064        1.40169       -0.26300
C          2.93363        0.47090       -0.06352
C          3.38680       -0.71239        0.62102
N          3.08306       -1.76949        0.50758
C          2.11437       -2.11162        0.10432
N          2.47160       -3.24654       -0.56940
C          0.78301       -1.55310        0.08602
C         -0.28082       -2.43697        0.27668
N         -1.57185       -2.06044        0.25656
C         -1.82520       -0.75024        0.06581
C         -3.19323       -0.31269        0.08148
C         -4.39306       -1.08403       -0.04506
N         -5.50016       -1.06939        0.24379
C         -2.66562        1.02331       -0.06855
N         -3.74441        1.86795       -0.12226
C         -1.32584        1.56171       -0.12215
C         -1.05282        2.52508        0.90421
N         -0.92952        3.65962        0.83638
C         -0.83355        0.20716       -0.11443
C          0.53099       -0.17932       -0.14206
C          1.58975        0.73882       -0.38779
N          1.34243        1.93757       -1.00912
H          4.17335       -0.80737        1.36096
H          1.75849       -3.83598       -0.98405
H          3.39577       -3.64098       -0.43172
H         -0.10775       -3.49894        0.44215
H         -3.58059        2.85854        0.02496
H         -4.65210        1.50002        0.14538
H          0.45578        2.07136       -1.48221
H          2.13286        2.49094       -1.32435
