27
Coordinates from ORCA-job ./opt_b97-3c_parallel
N          5.28367       -0.57736        0.21019
C          4.14382       -0.51848        0.14150
C          2.70408       -0.42856        0.05913
C          2.11785       -1.73468       -0.08455
N          1.13316       -2.22657       -0.01809
C          0.22102       -1.61785        0.09971
C         -0.28074       -0.26998        0.01093
C          0.56890        0.86764        0.00597
C         -0.03741        2.14574       -0.06797
C         -1.42172        2.30174       -0.13491
C         -2.19068        1.15379       -0.11912
C         -3.58226        0.95422       -0.15321
C         -3.62579       -0.48807       -0.07818
N         -4.81806       -1.14852       -0.04965
N         -2.64071       -1.03588       -0.03009
C         -1.66655       -0.09602       -0.04560
C          1.98426        0.78102        0.07847
N          2.72434        1.93472        0.17713
H          2.58636       -2.65012       -0.43016
H         -0.33514       -2.53219        0.27744
H          0.55729        3.05446       -0.08629
H         -1.87740        3.28702       -0.19460
H         -4.40620        1.65923       -0.19122
H         -5.69166       -0.64186       -0.13593
H         -4.83930       -2.16197       -0.02905
H          3.70928        1.85479        0.40787
H          2.25029        2.79295        0.43335
