30
Coordinates from ORCA-job ./opt_b97-3c_parallel
N          6.23036        0.83094       -0.91517
C          5.18847        0.43830       -0.65769
C          3.88367       -0.07117       -0.33033
C          3.58789       -1.38262       -0.01239
C          2.21721       -1.43818        0.16560
C          1.45670       -2.54570        0.42578
C          0.08125       -2.38898        0.41297
C         -0.58220       -1.14152        0.19865
C         -2.00063       -1.20645        0.01488
C         -2.60924       -2.53362       -0.04353
N         -3.10130       -3.56512       -0.09628
C         -2.92705       -0.15737       -0.20993
N         -4.22374       -0.50054       -0.55497
C         -2.70518        1.21809       -0.06405
C         -3.82101        2.14143       -0.17954
N         -4.69775        2.87100       -0.25476
C         -1.51699        1.85004        0.25455
C         -0.21942        1.35786        0.32573
C          0.67361        2.40556        0.77807
N          1.35108        3.24953        1.14708
C          0.24312        0.02960        0.15449
C          1.64426       -0.19219        0.01885
C          2.70204        0.65769       -0.33514
H          4.28756       -2.21351        0.04098
H          1.91024       -3.52464        0.56345
H         -0.44683       -3.32292        0.57315
H         -4.94002        0.21584       -0.61416
H         -4.50027       -1.47664       -0.58466
H         -1.61636        2.92475        0.42629
H          2.64638        1.70022       -0.63136
