31
Coordinates from ORCA-job ./opt_b97-3c_parallel
N         -3.77278       -2.78290        0.04692
C         -2.99240       -1.94700        0.04405
C         -2.00324       -0.88629        0.06030
C         -2.43784        0.41647        0.30399
N         -3.74923        0.74259        0.53291
C         -1.56692        1.55451        0.21681
C         -1.84033        2.94511       -0.01049
C         -0.58724        3.49346       -0.43774
C          0.45283        2.50446       -0.41036
N          1.59698        2.99619       -0.97088
C         -0.16286        1.29238        0.06473
C          0.29447       -0.09248        0.10947
C          1.66930       -0.30711        0.35746
C          2.51839        0.68172        0.98841
N          3.19178        1.44912        1.50364
C          2.34304       -1.58234        0.23756
N          3.67905       -1.73075       -0.04104
N          2.11425       -2.61365       -0.07881
C          1.12354       -2.95528       -0.42355
C         -0.22399       -2.48859       -0.26508
C         -0.62734       -1.15560       -0.06624
H         -4.02947        1.71605        0.48456
H         -4.46078        0.02838        0.41910
H         -2.75210        3.51769       -0.16020
H         -0.45471        4.52433       -0.75298
H          1.69514        4.00151       -1.05592
H          2.44828        2.45553       -0.85785
H          4.07731       -2.65987       -0.11975
H          4.31222       -0.96177        0.14993
H          1.47316       -3.84501       -0.93496
H         -0.90494       -3.33114       -0.36897
