26
Coordinates from ORCA-job ./opt_b97-3c_parallel
N         -0.96092       -4.00061       -0.01779
C         -0.45465       -2.97567       -0.00712
C          0.19954       -1.68694       -0.00167
C          1.59790       -1.72647       -0.01008
C          2.28734       -0.52949       -0.00864
C          3.65270       -0.29646       -0.01266
C          3.82768        1.08297       -0.00962
C          2.57343        1.68595       -0.00464
C          1.62389        0.67206       -0.00342
C          0.23185        0.75338        0.00269
N         -0.33518        1.96657        0.00114
C         -1.26696        2.53579        0.00134
C         -2.56920        1.94617        0.03418
C         -2.85158        0.57946        0.04611
N         -4.17543        0.23902        0.07905
C         -1.92754       -0.47917        0.03022
C         -0.51122       -0.45178        0.00902
H          2.13623       -2.67228       -0.01727
H          4.43864       -1.04787       -0.01651
H          4.78270        1.60250       -0.01035
H          2.37614        2.75519       -0.00075
H         -1.00008        3.58322       -0.06787
H         -3.36808        2.68439        0.04962
H         -4.43805       -0.72911       -0.07052
H         -4.87267        0.95704       -0.08359
H         -2.40558       -1.45390        0.04188
