29
Coordinates from ORCA-job ./opt_b97-3c_parallel
N          5.42016        1.22888       -0.02678
C          4.47765        0.58190       -0.04129
C          3.07812        0.29876       -0.06649
C          2.61465       -1.07607       -0.00998
C          1.23497       -1.14383        0.00991
C          0.39223       -2.24404        0.05752
N          0.85935       -3.52536        0.08596
N         -0.94713       -2.07937        0.06994
C         -1.48927       -0.82821        0.03718
C         -2.89519       -0.79778        0.05563
C         -3.77698        0.29433        0.03422
N         -5.11407        0.00967        0.05961
C         -3.42736        1.64437       -0.00840
C         -2.09210        2.15709       -0.04250
N         -1.17205        1.56660       -0.04159
C         -0.66790        0.32463       -0.01325
C          0.72005        0.11562       -0.02788
C          1.79938        0.99172       -0.07970
N          1.67762        2.35127       -0.15230
H          3.21157       -1.98423        0.01874
H          1.83016       -3.69599       -0.14895
H          0.19546       -4.27891       -0.05487
H         -3.37569       -1.77472        0.09238
H         -5.77699        0.75123       -0.13758
H         -5.41199       -0.94896       -0.08496
H         -4.18994        2.42014       -0.01728
H         -1.76526        3.18964       -0.05704
H          0.76390        2.76727       -0.00707
H          2.50236        2.92726       -0.02304
