28
Coordinates from ORCA-job ./opt_b97-3c_parallel
N         -4.08280        1.65547        0.01424
C         -3.08231        1.16815        0.01976
C         -1.73243        1.72172        0.02843
C         -0.45978        1.12262        0.02116
N          0.57171        2.03247        0.03972
C          1.92900        1.67479        0.01913
N          2.39598        2.68356        0.05303
C          2.22466        0.33277       -0.03761
C          3.49006       -0.19176       -0.08099
N          3.22460       -1.49704       -0.12803
C          1.88838       -1.87249       -0.11547
N          2.12488       -2.95943       -0.16502
C          1.24412       -0.59726       -0.05024
C         -0.11595       -0.32547       -0.01298
N         -1.00886       -1.34353       -0.00102
C         -2.34982       -1.04573        0.02538
N         -2.85179       -2.03336        0.05555
N         -3.40548       -0.17635        0.03624
H         -5.04642        1.30811        0.06988
H         -4.21692        2.66757       -0.08182
H         -1.75252        2.81064        0.03628
H          3.40537        2.81805        0.17375
H          2.05060        3.64678       -0.00685
H          4.59253       -0.21370       -0.10564
H          3.05837       -3.38639       -0.17577
H          1.51350       -3.77543       -0.24961
H         -3.81529       -2.20256       -0.24945
H         -2.57904       -2.92520        0.47635
