30
Coordinates from ORCA-job ./opt_b97-3c_parallel
N          1.04608        2.92203       -1.13889
C          1.23178        1.88359       -0.69626
C          1.51100        0.55750       -0.16462
C          2.87481        0.33930        0.13409
N          3.73617        1.41119        0.18482
C          3.51345       -0.86189        0.41539
C          3.01807       -2.14542        0.31332
C          1.73177       -2.55075        0.01193
C          0.56614       -1.79321       -0.12423
C         -0.57742       -2.60584       -0.26251
C         -1.86020       -2.08015       -0.29569
C         -1.98515       -0.71258       -0.15579
C         -3.19153        0.03059        0.00411
N         -4.52843       -0.23440       -0.01878
N         -2.37562        0.79567        0.14708
C         -1.42533        1.38055        0.30098
N         -1.48917        2.66047        0.77108
C         -0.89988        0.09775       -0.06480
C          0.43961       -0.37666       -0.11119
H          3.41998        2.31269       -0.15855
H          4.73353        1.24328        0.24991
H          4.56994       -0.80537        0.67171
H          3.73759       -2.94278        0.48431
H          1.62548       -3.63290       -0.03598
H         -0.48460       -3.68928       -0.31058
H         -2.73439       -2.72352       -0.36168
H         -5.19768        0.52386        0.05379
H         -4.86184       -1.14930       -0.30150
H         -2.36434        3.16882        0.72548
H         -0.63189        3.19727        0.85142
