25
Coordinates from ORCA-job ./opt_b97-3c_parallel
N          5.07189       -1.10468        0.21252
C          4.29834       -0.27643        0.06424
C          2.94881        0.18690        0.00753
C          2.62068        1.58174       -0.18676
N          1.54624        1.91871       -0.22909
C          0.81841        0.78904       -0.07779
C          1.62672       -0.29781        0.07219
C          1.15166       -1.58501        0.26188
C         -0.23050       -1.75818        0.27326
C         -1.09479       -0.66419        0.10573
C         -2.51373       -0.92875        0.06528
N         -3.05089       -2.00779       -0.58298
N         -3.45017       -0.37704        0.25982
C         -3.58527        0.71940        0.28218
C         -2.76210        1.85440       -0.03512
C         -1.37217        1.80106       -0.16044
C         -0.57708        0.64448       -0.04736
H          3.28001        2.43308       -0.30895
H          1.82879       -2.42634        0.38800
H         -0.63471       -2.75858        0.40762
H         -4.04651       -2.18725       -0.52584
H         -2.44561       -2.75853       -0.89437
H         -4.58841        0.70917        0.69362
H         -3.28069        2.80667       -0.11867
H         -0.87630        2.75352       -0.33018
