37
Coordinates from ORCA-job ./opt_b97-3c_parallel
N         -5.88123       -0.45561        0.36726
C         -4.75676       -0.27557        0.26244
C         -3.33057       -0.06862        0.10775
C         -2.98753        1.22697       -0.43583
N         -3.66006        1.84171       -1.45675
N         -2.14988        1.89246       -0.15581
C         -1.21469        1.58368        0.34559
N         -1.09702        2.41806        1.42373
C         -0.39618        0.40583        0.16026
C         -0.96570       -0.89237        0.22275
C         -2.37553       -1.06592        0.40107
N         -2.88414       -2.23967        0.90646
C         -0.07700       -1.99665        0.09791
N         -0.52953       -3.29224        0.00665
C          1.31056       -1.80176       -0.03991
C          2.19647       -2.94302       -0.16776
N          2.88024       -3.85320       -0.27076
C          1.83395       -0.50755       -0.09142
C          3.24157       -0.22351       -0.22166
C          4.52858       -0.83289       -0.04170
N          5.47069       -1.23064       -0.54950
C          2.87214        1.17457       -0.19057
N          3.97246        1.99488       -0.20503
C          1.60837        1.87536       -0.14425
C          1.32168        3.16686       -0.69985
N          1.34117        4.23271       -0.28669
C          0.98527        0.58153       -0.02240
H         -4.56374        1.47552       -1.73703
H         -3.48065        2.82281       -1.63862
H         -1.62998        3.28132        1.42867
H         -0.24185        2.40334        1.96806
H         -2.24166       -2.88345        1.35680
H         -3.85368       -2.25701        1.20569
H         -1.51432       -3.44126       -0.18868
H          0.12121       -4.01159       -0.29137
H          4.87630        1.58963       -0.42884
H          3.84115        2.98653       -0.37335
