27
Coordinates from ORCA-job ./opt_b97-3c_parallel
N         -0.97912        4.37880       -0.02582
C         -0.58460        3.30631       -0.05731
C         -0.06726        1.95643       -0.10496
C          1.30572        1.81259       -0.23252
C          1.87190        0.50642       -0.31595
C          3.04926       -0.22271        0.07204
N          4.20195        0.50759        0.03270
C          3.16480       -1.57851        0.53464
C          1.73895       -1.69323        0.47934
C          1.02014       -0.60721       -0.01203
C         -0.39506       -0.48727       -0.06588
C         -1.25001       -1.63059       -0.15616
C         -0.71696       -2.92529       -0.52264
N         -0.31892       -3.95420       -0.82406
C         -2.65789       -1.67660       -0.09253
C         -3.56972       -0.63621        0.09117
C         -3.27509        0.75934        0.18809
N         -2.23016        1.04857        0.07643
C         -0.91354        0.83159       -0.04661
H          1.95739        2.68197       -0.28520
H          5.08896        0.02773        0.13902
H          4.19581        1.40551       -0.43822
H          3.86159       -2.32413        0.16518
H          1.28659       -2.55099        0.96663
H         -3.12434       -2.65464       -0.20614
H         -4.63720       -0.84201        0.11207
H         -3.79371        1.52361        0.75493
