30
Coordinates from ORCA-job ./opt_b97-3c_parallel
N         -5.28560        0.79273       -0.75678
C         -4.16605        0.72114       -0.53708
C         -2.74416        0.64768       -0.25451
C         -2.13494        1.89196       -0.22974
C         -0.81274        2.21677       -0.00096
C          0.30975        1.39704        0.10930
C          1.49711        2.14732        0.17983
C          2.75128        1.56669        0.26549
N          3.87063        2.34123        0.36871
C          2.86504        0.14770        0.24408
C          3.86759       -0.82582       -0.12969
C          3.30254       -1.99004       -0.60289
C          1.94123       -1.84687       -0.54974
C          1.64408       -0.59472       -0.01189
C          0.34761       -0.02008        0.11942
C         -0.78331       -0.86975        0.28564
C         -0.53027       -2.17033        0.89579
N         -0.35078       -3.18714        1.38804
C         -2.15767       -0.58793        0.06876
N         -3.04328       -1.64641        0.16230
H         -2.78181        2.75256       -0.39790
H         -0.64034        3.29158        0.00711
H          1.45520        3.23518        0.18038
H          4.78111        1.90643        0.26754
H          3.79391        3.34395        0.23987
H          4.94878       -0.71604       -0.10272
H          3.84100       -2.85678       -0.97834
H          1.23861       -2.58372       -0.92959
H         -4.03865       -1.45185        0.18281
H         -2.72110       -2.52228        0.56117
