31
Coordinates from ORCA-job ./opt_b97-3c_parallel
N         -4.89382        2.62520       -0.00513
C         -4.11345        1.79002       -0.01682
C         -3.11774        0.74504       -0.01885
C         -1.76990        1.11906       -0.03784
C         -0.65160        0.26100       -0.02190
C         -0.72298       -1.15169        0.00082
C         -1.99939       -1.82321       -0.03981
N         -3.08720       -1.63739       -0.07381
C         -3.54291       -0.63527        0.00245
N         -4.84175       -1.04159        0.15116
C          0.44962       -1.93391        0.05263
N          0.35847       -3.30325        0.10411
C          1.71103       -1.31898        0.05923
C          2.93568       -2.08398        0.11330
N          3.90339       -2.69048        0.16881
C          1.74613        0.07054        0.01766
C          2.83783        0.97410        0.01944
C          4.26668        0.90607        0.05285
N          5.37069        0.94881       -0.23988
C          2.04992        2.18803       -0.01965
N          2.61350        3.43174       -0.02874
N          0.92840        2.16209       -0.03951
C          0.62228        0.84563       -0.01767
H         -1.58277        2.19075       -0.05427
H         -2.25323       -2.76260       -0.52017
H         -5.08990       -2.01238       -0.00250
H         -5.58599       -0.35217        0.14568
H          1.19984       -3.83594        0.30167
H         -0.53227       -3.72184        0.34898
H          3.61780        3.53472       -0.12688
H          2.02917        4.24964       -0.16222
