25
Coordinates from ORCA-job ./opt_b97-3c_parallel
N          5.22529       -0.85279       -0.20698
C          4.13817       -0.53973       -0.04812
C          2.77653       -0.13135        0.11221
C          2.50909        1.17534        0.36170
C          1.16137        1.00423        0.21248
C          0.29667        2.13647        0.01999
N          0.20429        3.23043       -0.07261
N         -1.03261        1.96788       -0.12198
C         -1.70588        0.79740       -0.07605
N         -3.08412        0.93236       -0.23292
C         -3.90670       -0.16570       -0.17924
N         -4.04746       -1.51217       -0.01630
C         -2.79031       -2.00293        0.17897
N         -1.44663       -1.74049        0.27427
C         -0.95239       -0.44291        0.14422
C          0.47449       -0.26258        0.21552
C          1.67397       -1.02986        0.01202
N          1.58996       -2.11331       -0.18184
H          3.03869        1.96365       -0.17103
H         -0.30322        4.09473        0.11445
H          1.19503        3.46180       -0.00925
H         -4.99883       -0.09892       -0.30431
H         -2.78057       -3.09434        0.32953
H          0.87193       -2.81628       -0.01358
H          2.48311       -2.60526       -0.18766
