31
Coordinates from ORCA-job ./opt_b97-3c_parallel
N          2.60918        3.08314       -0.09020
C          2.33546        1.98084       -0.21434
C          2.11300        0.56680       -0.19405
C          3.15736       -0.42970       -0.32876
N          4.47730       -0.09928       -0.45019
N          2.95685       -1.53593       -0.34673
C          1.61532       -1.58150       -0.21650
C          0.81856       -2.71614       -0.16525
C         -0.56169       -2.57125       -0.01532
C         -1.17165       -1.30158        0.08641
C         -2.58008       -1.22038        0.20538
N         -3.32378       -2.34891        0.42757
C         -3.31523       -0.03645        0.07492
C         -2.74965        1.23515       -0.29551
N         -3.38485        2.09933       -1.14052
N         -1.76869        1.68541       -0.05162
C         -0.84665        1.17274        0.28020
N         -0.47113        1.94183        1.34797
C         -0.33473       -0.15947        0.06215
C          1.03755       -0.35104       -0.11300
H          5.16339       -0.81894       -0.64749
H          4.75400        0.87268       -0.53534
H          1.26209       -3.70555       -0.24840
H         -1.15616       -3.48044       -0.00367
H         -4.30359       -2.24025        0.66708
H         -2.84916       -3.18026        0.76046
H         -4.39784       -0.03810        0.18427
H         -3.00822        3.02898       -1.28776
H         -4.33623        1.91257       -1.43628
H          0.39291        1.72624        1.83254
H         -0.81435        2.89390        1.41126
