25
Coordinates from ORCA-job ./opt_b97-3c_parallel
N         -4.34703        0.74704       -0.21686
C         -3.28267        0.45069       -0.15996
C         -2.04398        1.16633       -0.09164
C         -0.90131        0.28146       -0.03160
C         -1.62019       -0.95799       -0.09144
N         -1.03315       -2.15998       -0.10511
C          0.30710       -2.27983       -0.07003
C          1.15766       -1.11163       -0.01378
C          2.50403       -1.43117       -0.00640
N          3.64599       -0.73321        0.02664
C          3.44542        0.61737        0.09722
C          2.60137        1.66981        0.16854
C          1.24767        1.48022        0.10749
N          0.75298        2.47017        0.14587
C          0.54194        0.21334        0.02031
N         -2.99238       -0.89010       -0.15874
H         -4.66609        1.68685       -0.46007
H         -5.19975        0.20839       -0.05418
H         -2.01504        2.25193       -0.08762
H          0.62160       -3.33518       -0.09661
H          3.36061       -2.12322       -0.02166
H          4.52381        0.83965        0.09576
H          3.04584        2.66192        0.29074
H          1.16565        3.14862       -0.49534
H          0.89770        2.84241        1.08478
