29
Coordinates from ORCA-job ./opt_b97-3c_parallel
N          4.48341       -1.21593       -0.24247
C          3.34430       -1.13537       -0.18093
C          1.90182       -1.06165       -0.12281
C          1.52517       -2.39703       -0.50843
N          0.66948       -3.06446       -0.30525
C         -0.31167       -2.66089       -0.00572
N         -0.64672       -3.64633        0.88735
C         -1.00517       -1.39906       -0.14433
C         -2.41883       -1.68111       -0.27506
N         -3.53178       -1.92837       -0.36482
C         -0.38680       -0.12314       -0.09622
C          1.03179        0.05255        0.01729
C          1.53976        1.37032        0.23117
C          2.92151        1.70545        0.48552
N          4.00514        2.00257        0.69650
C          0.69408        2.47840        0.22573
C         -0.65423        2.28331        0.00641
C         -1.67627        3.27387       -0.06253
N         -2.20908        2.28888       -0.21182
C         -2.58229        1.23112       -0.33296
N         -3.93159        1.31021       -0.52421
C         -1.17715        1.04597       -0.13893
H          1.96641       -3.04331       -1.26101
H         -1.57719       -3.64841        1.29117
H         -0.15593       -4.53314        0.84851
H          1.08101        3.48489        0.37585
H         -1.57906        4.34159       -0.21775
H         -4.36366        2.21160       -0.68788
H         -4.44549        0.47653       -0.78896
