30
Coordinates from ORCA-job ./opt_b97-3c_parallel
N          5.90532       -0.16085       -0.94271
C          4.82611        0.09472       -0.66710
C          3.46363        0.41851       -0.33882
C          2.98676        1.67987       -0.02721
C          1.61932        1.55253        0.14381
C          0.70939        2.55430        0.40586
C         -0.64324        2.22248        0.43296
C         -1.55447        3.32156        0.65186
N         -2.26945        4.19636        0.83450
C         -1.07642        0.88703        0.22797
C         -2.46554        0.66626        0.16627
C         -3.10674       -0.55497       -0.23418
N         -4.22057       -0.56917       -1.02451
N         -2.86649       -1.62441       -0.11210
C         -1.86308       -2.00192        0.15110
N         -2.29896       -3.20900        0.64064
C         -0.49005       -1.53399        0.09680
C          0.42441       -2.63533        0.31419
N          1.13159       -3.51196        0.51383
C         -0.11771       -0.16437        0.08226
C          1.23478        0.23470       -0.02131
C          2.39762       -0.47083       -0.34586
H          3.56760        2.59748        0.02965
H          1.04151        3.58204        0.53989
H         -3.21401        1.44201        0.30781
H         -4.69808       -1.44492       -1.20689
H         -4.71531        0.29461       -1.21821
H         -3.25529       -3.50002        0.46941
H         -1.61964       -3.93072        0.85665
H          2.49141       -1.51397       -0.62413
