32
Coordinates from ORCA-job ./opt_b97-3c_parallel
N          3.69011       -3.42423        0.35773
C          3.23191       -2.38223        0.25447
C          2.63673       -1.06435        0.13574
C          1.24273       -1.07056        0.10782
C          0.29670       -0.03184        0.04997
C          0.57342        1.36225        0.01991
C         -0.52830        2.24787        0.08241
C         -1.84147        1.81302        0.12601
C         -2.10533        0.45999        0.07959
C         -3.45039       -0.04249        0.08479
C         -4.76057        0.52774        0.07998
N         -5.79993        0.90342        0.37203
C         -2.88012       -1.36155       -0.01598
N         -3.73571       -2.40464       -0.23937
C         -1.51366       -1.81104       -0.04163
C         -1.06213       -0.44564        0.03670
C          1.85085        1.96508       -0.07769
N          1.94567        3.32679       -0.23276
C          3.11110        1.37060       -0.06838
C          3.48789        0.04053        0.04790
N          4.84730       -0.16092        0.05335
H          0.84439       -2.07791        0.17422
H         -0.40364        3.32576        0.11468
H         -2.65228        2.53596        0.18007
H         -3.38563       -3.35413       -0.18012
H         -4.73268       -2.25049       -0.12870
H         -1.11859       -2.55842       -0.72367
H          2.84162        3.71415       -0.50694
H          1.11644        3.83327       -0.52081
H          3.94771        2.06555       -0.15222
H          5.21270       -1.08450        0.26160
H          5.47090        0.63608        0.11945
