22
Coordinates from ORCA-job ./opt_b97-3c_parallel
N          5.13709        0.73456       -0.10564
C          4.04439        0.40538       -0.05725
C          2.66510        0.03690       -0.00679
C          2.44614       -1.32540        0.03877
N          1.39760       -2.17290        0.09838
C          0.06413       -1.78630        0.11706
C         -0.44076       -0.44389        0.07036
C          0.30372        0.70010        0.02906
C         -0.42563        1.86115       -0.02239
N         -1.76164        2.00137       -0.03574
C         -2.47777        0.86681        0.00923
N         -3.82695        0.69705        0.00290
C         -3.91809       -0.68794        0.05833
C         -2.77346       -1.45700        0.10087
C         -1.88694       -0.41855        0.06487
C          1.62444        1.01720       -0.00229
H          3.18064       -2.14594        0.04098
H          0.02853       -2.88614        0.15610
H         -0.33831        2.95790       -0.07106
H         -4.95096       -1.07016        0.05886
H         -2.66019       -2.31901       -0.55344
H          1.95872        2.05284       -0.03186
