26
Coordinates from ORCA-job ./opt_b97-3c_parallel
N          3.36487        1.67162       -0.17196
C          2.87288        0.69351       -0.06321
N          3.70632       -0.39912        0.02377
C          2.99409       -1.56562        0.21311
N          1.73231       -1.82699        0.34435
C          0.73098       -1.05553        0.01080
C         -0.37263       -1.99075       -0.04079
C         -1.69039       -1.40512       -0.01447
N         -2.67358       -2.32145       -0.26729
C         -1.79229        0.02752        0.06847
C         -2.96231        0.80751        0.18148
N         -4.06299        0.81555        0.26023
N         -2.43908        2.04970        0.18299
C         -1.12123        2.25844        0.09160
C         -0.72897        0.95159        0.03751
C          0.59701        0.39308       -0.02182
N          1.61898        1.27446       -0.08285
H          4.34027        1.37907       -0.14109
H          3.37229        2.67200       -0.35722
H          3.86616       -2.23663        0.24805
H         -0.23198       -3.06648       -0.14480
H         -2.39294       -3.27504       -0.47975
H         -3.55478       -2.00856       -0.65863
H         -4.37185       -0.07093        0.65885
H         -4.88847        1.41155        0.20729
H         -0.44370        3.12601        0.06770
