27
Coordinates from ORCA-job ./opt_b97-3c_parallel
N          5.55971       -0.95403        0.22071
C          4.47926       -0.58803        0.15182
C          3.11314       -0.13937        0.07780
C          2.94470        1.28616        0.10884
N          2.09054        1.98513        0.13082
C          1.02289        1.70884        0.10748
N          0.65620        3.00812       -0.12643
C          0.15637        0.54874        0.02056
C          0.68388       -0.76710       -0.04964
C          2.06509       -1.05993       -0.01103
C         -0.23313       -1.84488       -0.14291
N          0.15941       -3.15087       -0.23531
N         -1.57593       -1.69646       -0.15241
C         -2.01245       -0.43126       -0.06459
C         -3.35063        0.01094       -0.03798
C         -4.67117       -0.53184       -0.08263
N         -5.61236       -1.08071        0.26177
C         -3.07082        1.42488        0.06993
N         -2.00721        1.79696        0.10377
C         -1.24077        0.68532        0.02167
H          3.64598        2.05428       -0.19881
H          1.32249        3.75663        0.03046
H         -0.32936        3.24839       -0.11258
H          2.37440       -2.10115       -0.03682
H         -0.54250       -3.84617       -0.46533
H          1.12445       -3.35793       -0.46452
H         -3.75985        2.25920        0.12989
