31
Coordinates from ORCA-job ./opt_b97-3c_parallel
N         -0.70377       -4.24878       -0.32703
C         -0.37637       -3.15669       -0.23326
C          0.05174       -1.77140       -0.12859
C          1.43781       -1.57508       -0.11295
N          2.34209       -2.60791       -0.16399
C          1.90035       -0.27931       -0.01652
C          3.26075        0.13922        0.11646
N          4.57203       -0.18343        0.30437
N          2.67799        1.09766        0.10387
C          1.91855        1.92423        0.11397
C          1.06004        0.78285       -0.02871
C         -0.35662        0.66826       -0.09471
C         -1.13807        1.85690       -0.20454
C         -0.53705        3.14368       -0.49303
N         -0.09296        4.17103       -0.72804
C         -2.52245        2.01608       -0.12833
C         -3.51740        1.08799        0.08644
C         -3.38759       -0.28032        0.18495
N         -4.55074       -0.97262        0.38471
C         -2.22656       -1.03440        0.07545
C         -0.86578       -0.67144       -0.05648
H          2.00729       -3.52968       -0.42437
H          3.31162       -2.38409       -0.35970
H          4.81439       -1.14086        0.53395
H          5.22539        0.54287        0.57481
H          1.98375        2.62837        0.93489
H         -2.90813        3.03134       -0.22749
H         -4.52547        1.49283        0.15810
H         -4.54559       -1.98451        0.31371
H         -5.43780       -0.48608        0.31575
H         -2.46424       -2.08878        0.15645
