26
Coordinates from ORCA-job ./opt_b97-3c_parallel
N         -4.09452       -1.16341        0.04793
C         -2.91928       -0.47263        0.01382
C         -2.90651        0.96902       -0.00479
C         -1.52069        1.21953       -0.00798
N         -0.92010        2.41219       -0.01106
C          0.42394        2.33764       -0.00660
C          1.17451        1.14301       -0.00038
C          2.55053        1.39214        0.00259
C          3.62088        0.51480        0.00287
C          3.59066       -0.86465        0.00144
C          2.48342       -1.69443        0.00800
C          1.12121       -1.38762        0.01481
N          0.37094       -2.53475        0.03728
C          0.49714       -0.11024        0.00544
C         -0.92082       -0.00406        0.00308
N         -1.89900       -0.94527        0.01078
H         -4.07669       -2.16503        0.20416
H         -4.96227       -0.67026        0.22469
H         -3.74991        1.65148        0.00120
H          0.91267        3.31083       -0.00757
H          2.85633        2.43674        0.00252
H          4.60948        0.96858        0.00328
H          4.55799       -1.36182       -0.00118
H          2.73884       -2.75341        0.00995
H         -0.63966       -2.48055       -0.02716
H          0.82276       -3.43897       -0.03410
