31
Coordinates from ORCA-job ./opt_b97-3c_parallel
N          1.33618        4.51835       -0.56338
C          0.95256        3.44846       -0.44256
C          0.46757        2.10109       -0.27072
C         -0.89872        1.86153       -0.29411
C         -1.40663        0.57472       -0.10270
C         -2.84461        0.44248       -0.09725
N         -3.68166        1.27134        0.59748
N         -3.56575       -0.31417       -0.45048
C         -3.35560       -1.39380       -0.55930
C         -2.38296       -2.21508        0.11109
C         -1.06470       -1.82637        0.37621
N         -0.31045       -2.80262        0.96889
C         -0.54351       -0.52814        0.11468
C          0.84992       -0.26375        0.07940
C          1.89018       -1.26153        0.09886
C          2.14660       -2.24114       -0.91682
N          2.51592       -3.32224       -0.95656
C          2.91281       -0.24258        0.04566
N          4.27795       -0.34589        0.04724
C          2.76168        1.18335       -0.08975
C          1.33547        1.02595       -0.09280
H         -1.58305        2.69407       -0.44747
H         -3.32540        2.12936        1.00228
H         -4.68551        1.17030        0.49484
H         -4.04446       -1.67340       -1.34772
H         -2.73880       -3.21388        0.35521
H         -0.77383       -3.64072        1.30245
H          0.57105       -2.54639        1.39929
H          4.82393        0.45683       -0.24596
H          4.68431       -1.26511       -0.09314
H          3.29563        1.94478        0.47337
