27
Coordinates from ORCA-job ./opt_b97-3c_parallel
N         -5.54095       -1.22069        0.20454
C         -4.54365       -0.66933        0.11674
C         -3.28130        0.02445        0.02499
C         -3.35990        1.40946       -0.00921
C         -2.32169        2.32121       -0.06857
C         -0.95538        2.08569       -0.08086
C         -0.24529        0.87805       -0.07180
C         -0.77639       -0.43690       -0.07839
C         -2.14163       -0.77711       -0.02368
C          0.14967       -1.51734       -0.12542
N         -0.21965       -2.83279       -0.19107
N          1.49219       -1.37987       -0.12615
C          1.97219       -0.13049       -0.08223
C          3.39513        0.13777       -0.05707
C          4.60676       -0.56014        0.23335
N          5.60012       -1.12564        0.22715
C          3.29247        1.58665       -0.01020
C          1.99311        2.06509       -0.01767
C          1.15704        0.97450       -0.06224
H         -4.35770        1.84518        0.01694
H         -2.61862        3.36742       -0.09219
H         -0.37945        3.00373       -0.10917
H         -2.37989       -1.83619        0.00321
H          0.49949       -3.51506       -0.40447
H         -1.17185       -3.05636       -0.45521
H          4.12762        2.28114        0.03743
H          1.71633        3.11466        0.02135
