29
Coordinates from ORCA-job ./opt_b97-3c_parallel
N          5.22733       -0.92373        0.45103
C          4.20956       -0.43024        0.28604
C          2.91912        0.18019        0.06138
C          3.03612        1.45331       -0.60139
N          2.45800        2.38542       -0.46880
C          1.45629        2.45766       -0.00963
C          0.30443        1.58604        0.01795
C         -0.97164        2.17486       -0.03322
N         -1.13946        3.52619       -0.13821
N         -2.11927        1.47219        0.03335
C         -2.00452        0.13512        0.11196
C         -3.18808       -0.69590        0.06878
C         -4.61092       -0.65767        0.17822
N         -5.74498       -0.59435        0.05185
C         -2.49607       -1.95598       -0.10497
C         -1.11562       -1.86512       -0.05450
C         -0.27842       -2.96709       -0.45894
N          0.36803       -3.84915       -0.79134
C         -0.79104       -0.53051        0.12723
C          0.43219        0.18096        0.15793
C          1.69252       -0.42873        0.38841
N          1.76061       -1.60589        1.08671
H          3.88228        1.85711       -1.14633
H          1.58061        3.42740        0.45957
H         -2.06938        3.88029       -0.33373
H         -0.34623        4.09542       -0.41125
H         -2.97647       -2.90033       -0.35289
H          2.65826       -2.05527        1.23701
H          0.91338       -2.08375        1.37176
