29
Coordinates from ORCA-job ./opt_b97-3c_parallel
N          5.28275       -0.62747       -0.31534
C          4.15624       -0.47495       -0.21124
C          2.74540       -0.25302       -0.02036
C          1.89324       -1.33207        0.19937
N          2.50066       -2.51284        0.44768
C          0.54870       -1.33305        0.18331
C         -0.32449       -0.27864        0.05151
C         -0.00436        1.12770        0.18200
N         -0.98664        2.04765        0.24200
C         -2.26629        1.65778        0.14823
C         -2.76292        0.40661       -0.07166
C         -4.03813       -0.10541       -0.11773
N         -5.00377        0.34605        0.16276
C         -3.73478       -1.42237       -0.28284
C         -2.43881       -1.66304       -0.25781
C         -1.74577       -0.50879       -0.09601
N          1.20121        1.56704        0.29143
C          2.37368        1.13677       -0.01913
N          2.73718        2.17259       -0.15692
H          3.49711       -2.63907        0.26646
H          2.03311       -3.39654        0.24798
H          0.08393       -2.29908        0.37192
H         -3.01969        2.44778        0.28769
H         -5.38565        1.24435        0.45542
H         -5.79924       -0.28412        0.07487
H         -4.48217       -2.19941       -0.43409
H         -2.00187       -2.64824       -0.39679
H          3.65231        1.79370       -0.40201
H          2.73201        3.13251       -0.49904
