26
Coordinates from ORCA-job ./opt_b97-3c_parallel
N         -5.05919       -1.97164       -1.32043
C         -4.19955       -1.36766       -0.87428
C         -3.15420       -0.58487       -0.29227
C         -2.27072       -1.37318        0.38286
C         -1.02744       -1.01038        0.66579
C         -0.42509        0.15849        0.27651
C         -1.06230        1.47535        0.29057
N         -2.39883        1.65678        0.28007
C         -3.39191        0.79400       -0.00326
N         -0.33541        2.66332        0.25608
C          1.03441        2.61413        0.11599
C          1.71871        1.39703       -0.16977
C          3.06731        0.90633       -0.32152
C          3.11836       -0.52493       -0.27745
C          4.38929       -1.17182       -0.43285
N          5.40831       -1.67929       -0.52520
C          1.82477       -0.93836       -0.07083
N          1.70230       -2.03757       -0.02814
C          1.00989        0.16571        0.02316
H         -2.61407       -2.32781        0.78399
H         -0.45885       -1.69516        1.28940
H         -4.08845        1.63802       -0.11701
H          1.64400        3.53047        0.08624
H          3.96047        1.50813       -0.46473
H          1.33329       -2.66357       -0.74283
H          2.50038       -2.52046        0.38497
