28
Coordinates from ORCA-job ./opt_b97-3c_parallel
N         -1.30705       -2.43278       -1.55762
C         -1.52541       -1.71344       -0.69657
C         -1.30573       -0.69079       -0.31502
C         -2.47349        0.04018       -0.21277
N         -3.57747        0.11845       -0.34322
N         -2.97374        1.21156        0.23193
C         -2.23529        2.24531        0.71015
N         -0.85325        2.37985        0.64818
C         -0.14068        1.23897        0.34474
N          0.89142        2.12587        0.03380
C          2.05529        1.51367       -0.42686
N          2.96135        2.05664       -0.75385
C          2.24337        0.09446       -0.25123
C          3.25174       -0.97776       -0.02393
C          2.67558       -2.05498        0.47340
C          1.37214       -1.93008        0.60267
N          0.62119       -2.87946        1.18116
C          1.07657       -0.70066        0.08629
C         -0.16530       -0.10208        0.07729
H         -4.57064        0.36014       -0.32421
H         -3.52543       -0.74968       -0.87496
H         -2.91782        3.06332        0.98999
H          3.84000        1.56577       -0.92892
H          3.13805        3.02568       -1.02384
H          4.33581       -0.93002       -0.11430
H          3.23152       -2.93568        0.78901
H         -0.30132       -3.10757        0.81183
H          1.04991       -3.76224        1.46201
