30
Coordinates from ORCA-job ./opt_b97-3c_parallel
N          5.71295       -1.82803       -0.02792
C          4.72273       -1.25632       -0.03069
C          3.46609       -0.53393       -0.01928
C          2.33752       -1.35412       -0.00895
C          0.97298       -1.04495        0.00220
C          0.14207       -2.17519        0.00592
N         -1.20215       -2.13546        0.01561
C         -1.77826       -0.91971        0.02310
C         -3.21218       -0.83049        0.03269
C         -4.18000       -1.88734        0.03458
N         -5.25455       -2.27767        0.03917
C         -3.03849        0.60505        0.02734
N         -4.31805        1.10273       -0.00525
C         -1.86360        1.45220        0.03060
C         -2.04867        2.87275        0.06611
N         -1.90103        4.00542        0.05022
C         -1.05226        0.26025        0.02120
C          0.36407        0.22756        0.00990
C          1.04840        1.44945        0.00631
C          2.40837        1.72560       -0.00722
C          3.50031        0.86684       -0.02053
N          4.71516        1.50620       -0.03949
H          2.56400       -2.42036       -0.01172
H          0.55476       -3.18320       -0.00009
H         -4.47158        2.10433        0.05521
H         -5.11278        0.47477        0.06124
H          0.46217        2.35701        0.01246
H          2.64250        2.78917       -0.00854
H          5.57421        0.96674       -0.00681
H          4.76025        2.51828        0.00434
