31
Coordinates from ORCA-job ./opt_b97-3c_parallel
N          4.16962       -2.03095       -0.41684
C          3.31156       -1.29449       -0.24571
C          2.21730       -0.34643       -0.04899
C          2.61795        0.95027        0.31060
N          3.94441        1.21660        0.55916
C          1.81961        2.07736        0.36682
C          0.46641        2.21595        0.13018
C         -0.54173        1.25553       -0.03783
C         -1.85706        1.78851       -0.18881
N         -2.11811        3.12541       -0.34753
C         -2.98360        0.97720       -0.18884
C         -2.80114       -0.36915        0.00742
C         -3.78042       -1.33266        0.17013
C         -3.12693       -2.52562        0.41819
C         -1.76029       -2.28117        0.39139
C         -1.54268       -0.92767        0.09657
C         -0.34996       -0.15918       -0.02713
C          0.89344       -0.83201       -0.20598
N          0.81750       -2.11867       -0.69351
H          4.63596        0.50677        0.34061
H          4.25029        2.18150        0.61830
H          2.32979        3.01436        0.58688
H          0.17837        3.26058        0.17798
H         -3.04837        3.39931       -0.64384
H         -1.34994        3.73896       -0.59473
H         -3.98463        1.39345       -0.27921
H         -4.85621       -1.17577        0.15173
H         -3.60042       -3.48075        0.63172
H         -1.01415       -3.03534        0.62231
H         -0.07019       -2.44247       -1.06151
H          1.66316       -2.56282       -1.03551
