28
Coordinates from ORCA-job ./opt_b97-3c_parallel
N         -2.90771       -4.07187        0.11376
C         -2.50875       -3.00169        0.06887
C         -2.01535       -1.64628        0.02519
C         -2.97746       -0.65290        0.04648
C         -2.82034        0.72576       -0.02439
C         -4.09940        1.41530       -0.04226
N         -5.11137        1.94637       -0.06258
C         -1.62509        1.47817       -0.06920
N         -1.81832        2.83794       -0.20110
C         -0.27957        1.01658       -0.01288
C          0.72980        2.01868        0.06500
C          2.08841        1.73342        0.07922
C          2.45197        0.41116        0.00171
C          3.73178       -0.18118       -0.02050
C          5.10741        0.20038        0.00031
N          5.91453        0.99436        0.15948
C          3.30339       -1.55822       -0.09772
N          2.20029       -1.78230       -0.10790
C          1.54628       -0.59777       -0.05131
C          0.15640       -0.34214       -0.03508
C         -0.63799       -1.49630       -0.03902
H         -4.00660       -1.01244        0.09886
H         -2.75121        3.16887       -0.42523
H         -1.04052        3.40489       -0.51779
H          0.49746        3.07657        0.13861
H          2.83336        2.52288        0.14428
H          3.89859       -2.46201       -0.15104
H         -0.11266       -2.44882       -0.06360
