30
Coordinates from ORCA-job ./opt_b97-3c_parallel
N          4.75299        2.06904        0.01607
C          3.90527        1.30322        0.00489
C          2.82598        0.34971       -0.00743
C          2.95930       -1.01930        0.09775
C          1.68833       -1.58008        0.07664
C          1.51734       -2.99368        0.30616
N          1.40071       -4.11654        0.48448
C          0.73549       -0.54516       -0.05397
C          1.47066        0.62270       -0.07484
C          0.86938        1.85306       -0.16767
C         -0.51730        1.91968       -0.15113
N         -0.98054        3.19283       -0.36194
C         -1.34269        0.74976       -0.03651
C         -2.74459        0.91764        0.18954
N         -3.25004        2.11644        0.62553
C         -3.77865       -0.01699        0.12632
C         -3.74913       -1.35437       -0.20471
C         -2.63663       -2.12598       -0.44391
C         -1.30520       -1.75961       -0.36302
C         -0.68400       -0.52150       -0.12933
H          3.89585       -1.56059        0.21270
H          1.47299        2.75621       -0.24012
H         -1.94974        3.30008       -0.64357
H         -0.32242        3.90011       -0.66928
H         -2.59237        2.81031        0.96590
H         -4.18886        2.13353        1.00704
H         -4.78302        0.35193        0.33334
H         -4.70994       -1.86129       -0.25807
H         -2.82896       -3.16890       -0.68640
H         -0.67803       -2.60071       -0.60039
