30
Coordinates from ORCA-job ./opt_b97-3c_parallel
N         -4.90491       -1.88889       -0.06637
C         -3.81027       -1.56887       -0.15040
C         -2.62995       -0.77973        0.00915
C         -2.44949        0.65183        0.03643
N         -3.46795        1.56652        0.02947
C         -1.21369        1.38952        0.05576
C         -0.54605        2.65417        0.07598
C          0.83876        2.69665        0.04865
C          1.61514        1.53158        0.00690
C          3.00564        1.75224       -0.03566
C          4.05534        0.82905       -0.10834
C          3.96176       -0.56039       -0.13143
C          2.73953       -1.30056       -0.03982
N          2.72047       -2.65599        0.11018
N          1.74146       -0.85034       -0.02293
C          0.98985        0.26415        0.00017
C         -0.42333        0.19090        0.01998
C         -1.20664       -0.96536        0.00233
N         -0.74152       -2.25265       -0.03346
H         -4.41888        1.24009        0.16425
H         -3.26068        2.53905        0.22883
H         -1.12065        3.57684        0.10513
H          1.31883        3.67275        0.05662
H          3.33186        2.78993       -0.02592
H          5.05951        1.24304       -0.15554
H          4.86948       -1.15586       -0.19769
H          3.59191       -3.15200        0.26135
H          1.86032       -3.11849        0.38023
H         -1.39243       -2.99981       -0.24913
H          0.24199       -2.39899       -0.23667
