32
Coordinates from ORCA-job ./opt_b97-3c_parallel
N          3.04384       -2.18766       -1.64907
C          2.64296       -1.32677       -1.01205
C          2.13087       -0.21184       -0.22284
C          3.06356        0.82063       -0.02001
N          4.39741        0.59616       -0.26782
C          2.81195        2.08571        0.47466
C          1.59575        2.72076        0.59965
C          0.31259        2.25632        0.31968
C         -0.63251        3.34556        0.45570
N         -1.35391        4.22511        0.57196
C         -0.10661        0.91338        0.10929
C          0.74815       -0.23344        0.11605
C          0.15132       -1.51229        0.36243
C          0.90987       -2.61819        0.92456
N          1.49677       -3.48524        1.38442
C         -1.22883       -1.71161        0.24695
N         -1.82402       -2.93391        0.43855
C         -2.00463       -0.61682       -0.07794
C         -3.41500       -0.59101       -0.30723
N         -4.52644       -1.34857       -0.53069
N         -3.10696        0.48894       -0.32211
C         -2.60767        1.49496       -0.33995
C         -1.48685        0.63528       -0.09003
H          4.66876       -0.24772       -0.76289
H          5.03644        1.38329       -0.27969
H          3.67691        2.71345        0.68483
H          1.68936        3.76556        0.89792
H         -2.83085       -2.96177        0.55845
H         -1.27638       -3.67708        0.85995
H         -5.36378       -0.90487       -0.89032
H         -4.41765       -2.34400       -0.69045
H         -2.77724        2.17026       -1.17046
