26
Coordinates from ORCA-job ./opt_b97-3c_parallel
N          0.64255       -3.43757       -0.79780
C          0.14307       -2.46519       -0.46217
C         -0.52510       -1.25644       -0.09158
C         -1.81528       -1.74981        0.01162
N         -3.01651       -1.19273        0.21581
C         -2.95937        0.17216        0.18483
N         -4.02217        0.41648        0.36884
N         -2.28247        1.35301        0.03633
C         -0.90442        1.29499       -0.10923
N         -0.47676        2.60528       -0.29945
C          0.87322        2.81240       -0.47452
C          1.78975        1.74102       -0.27191
C          3.25149        1.52003       -0.11720
C          3.50340        0.28855        0.28022
C          2.42572       -0.45951        0.40000
N          2.53980       -1.65792        0.99092
C          1.41719        0.37001       -0.01082
C         -0.02593        0.11956       -0.06583
H         -2.36251       -2.70744       -0.01154
H         -4.44119        1.29846        0.66862
H         -4.77295       -0.27163        0.44909
H          1.46438        3.72383       -0.65615
H          4.05481        2.24890       -0.20525
H          4.50552       -0.05016        0.54215
H          2.17784       -2.49217        0.52930
H          3.43308       -1.92883        1.40306
