27
Coordinates from ORCA-job ./opt_b97-3c_parallel
N         -4.55169        2.08916        0.00079
C         -3.70799        1.31774        0.00002
C         -2.65166        0.32424       -0.00002
C         -1.36361        0.86393        0.00103
C         -0.10806        0.24301        0.00201
C          0.16078       -1.14201        0.00240
C         -0.77674       -2.17527        0.00206
C         -2.16393       -2.12770        0.00114
C         -3.01776       -1.03060        0.00000
N         -4.35178       -1.35735       -0.00061
C          1.50046       -1.58187        0.00327
C          2.57929       -0.69880        0.00318
C          3.92650       -1.21369        0.00251
N          4.98500       -1.64637        0.00181
C          2.30944        0.66502        0.00265
N          3.18095        1.69887        0.00222
C          2.57829        2.65081        0.00178
C          1.14333        2.49620        0.00119
C          1.01274        1.08700        0.00232
H         -1.34575        1.95075        0.00112
H         -0.38020       -3.18854        0.00264
H         -2.64251       -3.10543        0.00154
H         -5.05298       -0.62367        0.00085
H         -4.64452       -2.32782        0.00109
H          1.71765       -2.64916        0.00339
H          3.16654        3.56064        0.00227
H          0.39942        3.28579        0.00126
