29
Coordinates from ORCA-job ./opt_b97-3c_parallel
N          4.33223        2.32285        0.09427
C          3.56313        1.53630        0.40404
C          2.52983        0.62163        0.02275
C          2.18411       -0.78064        0.00615
N          3.38154       -1.44318       -0.06699
C          0.98893       -1.59286        0.04350
C          0.84298       -2.94808        0.48317
N          0.73591       -3.97169       -0.01533
C          0.30701       -0.32639       -0.00494
C          1.10637        0.80265       -0.01604
C          0.52707        2.06577       -0.06876
C         -0.85914        2.20448       -0.07331
N         -1.35292        3.48105       -0.11315
C         -1.69711        1.06986       -0.03209
C         -3.09659        1.25745        0.02241
C         -4.06680        0.25845        0.12965
C         -3.78259       -1.14873        0.19637
N         -2.90810       -1.79773        0.02366
C         -1.88085       -1.41217       -0.08137
C         -1.09070       -0.20716       -0.03200
H          3.39164       -2.44370        0.10185
H          4.23584       -0.92401        0.10715
H          1.15909        2.95153       -0.09454
H         -0.71567        4.24076       -0.32559
H         -2.33496        3.61517       -0.32553
H         -3.49319        2.26815        0.01145
H         -5.11969        0.52317        0.18806
H         -4.48361       -1.97467        0.24236
H         -1.74460       -2.27775       -0.72227
