28
Coordinates from ORCA-job ./opt_b97-3c_parallel
N          5.20264        1.06812        0.25150
C          4.46583        0.26217       -0.08597
C          3.04525        0.19639       -0.22496
C          2.31395       -1.03183       -0.12425
C          0.92950       -0.95075       -0.07877
C          0.08976       -2.05446        0.04944
N          0.56687       -3.33141        0.12502
N         -1.25021       -1.93278        0.11258
C         -1.86453       -0.72288        0.03934
C         -3.25644       -0.80446        0.12638
C         -4.22269        0.19355        0.08719
C         -4.05656        1.56081       -0.06776
C         -2.87133        2.26175       -0.21870
C         -1.57321        1.77013       -0.23572
C         -1.10966        0.45931       -0.11258
C          0.33085        0.34722       -0.15327
C          1.71682        0.73392       -0.07425
N          1.81117        2.05342        0.27329
H          2.82771       -1.98834       -0.06456
H          1.53230       -3.50738       -0.12708
H         -0.09500       -4.09442        0.03789
H         -3.66400       -1.80689        0.24848
H         -5.25122       -0.14556        0.18668
H         -4.96734        2.15522       -0.07499
H         -2.97045        3.33875       -0.33344
H         -0.81180        2.53566       -0.36568
H          2.71890        2.42058        0.54094
H          0.98398        2.52454        0.62139
