26
Coordinates from ORCA-job ./opt_b97-3c_parallel
N          2.92511       -3.25191       -0.00093
C          2.12301       -2.43768        0.00139
C          1.09427       -1.42718        0.00338
C         -0.25032       -1.79892        0.00113
C         -1.29603       -0.85394        0.00120
C         -2.57343       -1.42407       -0.00273
C         -3.82249       -0.81748       -0.00364
C         -4.13157        0.53296       -0.00074
C         -3.25737        1.60780        0.00349
C         -1.86813        1.60158        0.00520
C         -0.97592        0.52294        0.00384
C          0.39042        0.83978        0.00483
C          1.07982        2.07488        0.00171
C          2.44873        1.61900       -0.00258
N          3.48300        2.50689       -0.02023
N          2.62405        0.50832        0.00211
C          1.40253       -0.07332        0.00415
H         -0.48281       -2.86241       -0.00141
H         -2.62039       -2.51127       -0.00542
H         -4.67413       -1.49412       -0.00719
H         -5.19088        0.77962       -0.00186
H         -3.72322        2.59071        0.00540
H         -1.43807        2.59833        0.00853
H          0.72104        3.09868       -0.00588
H          4.42958        2.16568       -0.14618
H          3.30325        3.49014       -0.18806
