29
Coordinates from ORCA-job ./opt_b97-3c_parallel
N          5.49704       -0.17640        0.08654
C          4.36178       -0.31519        0.07284
C          2.93214       -0.50651        0.04935
C          2.44039       -1.81412        0.05338
C          1.10175       -2.22779        0.03615
C         -0.07431       -1.45660        0.01982
C         -1.28314       -2.17906        0.01388
C         -2.52250       -1.53493        0.00399
N         -3.68390       -2.25558       -0.00154
C         -2.52730       -0.14401        0.00353
C         -3.62746        0.76374        0.00176
N         -2.71800        1.43908        0.00805
C         -1.70845        1.95093        0.01680
N         -1.08273        3.16173        0.05293
C         -1.37593        0.56311        0.00877
C         -0.11670       -0.04608        0.01385
N          0.98527        0.71921        0.01335
C          2.07550        0.64729        0.01580
N          2.50122        1.94359       -0.06941
H          3.17981       -2.61152        0.07214
H          0.96975       -3.30754        0.04134
H         -1.26225       -3.26673        0.01878
H         -4.55501       -1.77514       -0.19807
H         -3.63851       -3.25314       -0.17766
H         -4.68268        0.54980        0.11721
H         -1.62084        3.99915        0.24184
H         -0.08271        3.18957        0.21833
H          3.48659        2.13957       -0.20820
H          1.83479        2.67979       -0.27015
