28
Coordinates from ORCA-job ./opt_b97-3c_parallel
N         -5.02177        2.90251       -0.00046
C         -4.13224        2.18477       -0.00007
C         -3.02473        1.26331        0.00042
C         -1.73949        1.89216        0.00067
N         -0.81682        1.30689        0.00198
C         -0.18303        0.12581        0.00287
C         -0.90385       -1.09154        0.00164
C         -0.16152       -2.29264        0.00161
C          1.22555       -2.31644        0.00317
C          1.97510       -1.10001        0.00614
C          3.17603       -0.30786       -0.01828
N          4.16773       -1.24580       -0.10327
C          3.42476        1.11061        0.00451
C          4.55417        1.98472        0.00246
N          5.69341        2.07843        0.01449
C          2.00027        1.27380        0.00397
C          1.22517        0.12031        0.00446
C         -2.32755       -1.16656        0.00048
C         -2.98128       -2.45788       -0.00033
N         -3.51097       -3.47073       -0.00091
C         -3.26004       -0.11217        0.00016
H         -1.50298        2.94988       -0.00185
H         -0.64385       -3.26545       -0.00040
H          1.75746       -3.26399        0.00177
H          5.13169       -0.95243        0.01785
H          3.93881       -2.22260        0.04376
H          1.56176        2.26880        0.00194
H         -4.31299       -0.39545       -0.00044
