30
Coordinates from ORCA-job ./opt_b97-3c_parallel
N         -5.36771       -0.54367        0.06027
C         -4.52671        0.23139        0.04655
C         -3.12198        0.48451        0.02432
C         -2.61077        1.83160        0.04709
N         -1.49277        1.93300        0.02834
C         -0.89429        0.71676       -0.01269
C         -1.89146       -0.20699       -0.00832
C         -1.66898       -1.55844       -0.04505
C         -0.35203       -1.98942       -0.05055
N         -0.20729       -3.35216       -0.11192
C          0.74130       -1.07137       -0.01500
C          2.00748       -1.68576        0.06421
C          3.28884       -1.16511        0.08568
C          3.69059        0.15006       -0.01044
N          5.03945        0.37748       -0.01137
C          2.86865        1.25802       -0.11060
C          1.47570        1.36311       -0.10758
N          1.12609        2.68572       -0.21388
C          0.48195        0.33950       -0.04246
H         -3.14786        2.77205        0.08067
H         -2.50207       -2.25852       -0.06259
H         -1.02486       -3.91125       -0.32943
H          0.69699       -3.72851       -0.37264
H          2.05104       -2.76600        0.14149
H          4.08300       -1.90523        0.16895
H          5.37873        1.32964        0.06903
H          5.66714       -0.38038        0.23323
H          3.41280        2.20024       -0.18890
H          0.16206        2.95550       -0.05783
H          1.84261        3.39364       -0.10218
