30
Coordinates from ORCA-job ./opt_b97-3c_parallel
N         -3.59348       -2.39334        0.52451
C         -2.93618       -1.47208        0.35869
C         -2.10635       -0.29095        0.15869
C         -2.76451        0.84099       -0.35238
N         -4.07375        0.74298       -0.75991
C         -2.27688        2.13946       -0.36340
C         -1.00992        2.60241       -0.05690
C          0.17542        1.88667        0.10565
C          1.30830        2.72076        0.18243
C          2.59893        2.21424        0.22236
C          2.74297        0.84808        0.11314
C          3.92343        0.14507       -0.04099
C          3.57583       -1.17543       -0.25902
C          2.19024       -1.27812       -0.21730
C          1.51683       -2.47956       -0.65045
N          0.99842       -3.44040       -0.98851
C          1.65464       -0.00648        0.06309
C          0.32151        0.47806        0.17199
C         -0.73365       -0.41241        0.47684
N         -0.39532       -1.48224        1.27506
H         -4.56756       -0.13707       -0.65121
H         -4.60384        1.58287       -0.96324
H         -2.98768        2.91974       -0.63154
H         -0.92947        3.68753       -0.07798
H          1.19644        3.80311        0.18552
H          3.46213        2.87489        0.25228
H          4.92737        0.56129       -0.06920
H          4.26673       -1.98008       -0.49956
H          0.58527       -1.67876        1.43838
H         -1.05518       -2.24742        1.36986
