32
Coordinates from ORCA-job ./opt_b97-3c_parallel
N          5.64106       -0.63684        0.13928
C          4.66151       -0.05521        0.04598
C          3.31877        0.42296       -0.03788
C          2.98961        1.82595        0.10375
C          1.63464        2.09513        0.05290
C          0.96308        0.89962       -0.11849
C          1.95390       -0.05248       -0.12250
N          1.69400       -1.35809       -0.08801
C          0.40119       -1.72648       -0.07836
N          0.33193       -3.07481        0.14146
C         -0.71799       -0.83042       -0.13890
C         -2.03055       -1.38117       -0.19964
N         -2.24285       -2.67738       -0.59902
C         -3.23939       -0.77856        0.14028
C         -3.52545        0.54928        0.39237
N         -4.80154        0.84214        0.78846
C         -2.70527        1.61802        0.08899
C         -1.36007        1.62453       -0.26440
N         -0.98211        2.85311       -0.73723
C         -0.41754        0.56980       -0.16471
H          3.69787        2.63411        0.27277
H          1.21969        3.08444        0.20505
H         -0.54324       -3.44959        0.49159
H          1.18556       -3.55477        0.40328
H         -3.18586       -2.95227       -0.85071
H         -1.47921       -3.15563       -1.06668
H         -4.09997       -1.44498        0.20642
H         -4.99105        1.77668        1.13374
H         -5.37257        0.08710        1.15244
H         -3.19557        2.59150        0.11730
H         -1.71205        3.50788       -0.99583
H         -0.10593        2.91433       -1.24409
