29
Coordinates from ORCA-job ./opt_b97-3c_parallel
N         -0.00912       -4.28247       -0.06232
C          0.23729       -3.16582       -0.04953
C          0.56376       -1.75958       -0.02968
C          1.92298       -1.44147       -0.01670
C          2.28593       -0.10437        0.00436
C          3.59244        0.46153        0.02377
N          4.85443       -0.05219        0.03965
N          2.89254        1.34944        0.02561
C          2.06802        2.12405        0.03168
C          1.36354        0.88085        0.01091
C         -0.01291        0.61903       -0.00030
C         -0.88099        1.72008        0.00999
C         -2.31748        1.65324        0.00203
N         -3.09781        2.77433        0.00372
N         -3.08057        0.85552       -0.00104
C         -2.91005       -0.23496       -0.01603
N         -4.19638       -0.69672       -0.01000
C         -1.77879       -1.12323       -0.03158
C         -0.42476       -0.74191       -0.02081
H          2.68476       -2.21826       -0.02230
H          4.99067       -1.04782        0.17423
H          5.64545        0.56374        0.18952
H          1.68834        3.13818        0.02945
H         -0.51053        2.74113        0.02649
H         -2.67387        3.68724       -0.11547
H         -4.10011        2.69085       -0.12704
H         -4.37633       -1.68842        0.10017
H         -4.96392       -0.05121        0.13717
H         -2.10555       -2.16012       -0.04845
