33
Coordinates from ORCA-job ./opt_b97-3c_parallel
N         -5.33953       -0.29599       -0.76149
C         -4.23815       -0.15143       -0.49186
C         -2.83628        0.03878       -0.16832
C         -2.42007        1.35537       -0.30080
C         -1.17623        1.93624       -0.07569
C         -1.25355        3.38235       -0.15421
N         -1.32977        4.52233       -0.20467
C          0.06724        1.28728        0.09728
C          1.20528        2.10707        0.24047
C          2.47728        1.59885        0.44170
N          3.53372        2.44528        0.62036
C          2.76240        0.20964        0.26955
C          3.98462       -0.45317       -0.08597
C          3.56029       -1.68145       -0.68896
C          2.13103       -1.81297       -0.66085
N          1.74890       -2.96689       -1.28382
C          1.63373       -0.63134       -0.00248
C          0.27782       -0.10751        0.20771
C         -0.69608       -1.07928        0.54870
C         -0.19685       -2.28672        1.19748
N          0.17804       -3.23232        1.72056
C         -2.09275       -1.03534        0.34174
N         -2.81100       -2.18624        0.60658
H         -3.21313        2.05282       -0.58072
H          1.13704        3.19109        0.25469
H          3.39064        3.43974        0.48106
H          4.47234        2.07912        0.50345
H          4.93706       -0.07515       -0.44846
H          4.24279       -2.41406       -1.10987
H          0.80148       -3.29540       -1.13127
H          2.45867       -3.66933       -1.46003
H         -3.76685       -2.25621        0.27284
H         -2.30725       -3.04722        0.79313
