31
Coordinates from ORCA-job ./opt_b97-3c_parallel
N          1.73407        3.73829       -0.78933
C          1.02161        2.88065       -0.53869
C          0.09054        1.81392       -0.24736
C         -1.24348        2.22875       -0.27448
C         -2.27827        1.32605       -0.09470
C         -3.60512        1.71560       -0.08139
C         -4.57045        0.68683        0.15612
C         -3.39791       -0.13138        0.33422
N         -3.70191       -1.33375        0.90793
C         -1.97816       -0.05504        0.08935
C         -0.61531       -0.49910       -0.04332
C         -0.48282       -1.88989       -0.13270
C          0.74521       -2.58438       -0.39820
N          0.80050       -3.70921       -1.17013
N          1.79556       -2.37959       -0.12998
C          2.18925       -1.38772        0.15355
N          3.33293       -1.88916        0.72710
C          1.79772        0.00874        0.05839
C          2.94212        0.84951        0.35306
N          3.84925        1.49537        0.61324
C          0.44891        0.44410       -0.08021
H         -1.48139        3.27931       -0.43450
H         -3.88000        2.75951       -0.21567
H         -5.39787        0.74997        0.85628
H         -2.94571       -1.90853        1.26277
H         -4.62762       -1.46767        1.29940
H         -1.35562       -2.53764       -0.08229
H          1.67318       -4.21816       -1.25810
H         -0.05428       -4.16164       -1.47378
H          4.08288       -1.25150        0.97188
H          3.57495       -2.86357        0.58450
