30
Coordinates from ORCA-job ./opt_b97-3c_parallel
N         -5.04240        1.13639       -0.08531
C         -4.36039        0.26027        0.18417
C         -3.01293       -0.21242        0.15724
C         -2.71444       -1.62061        0.22389
N         -1.62382       -1.88456        0.19007
C         -0.84436       -0.77836        0.09691
C         -1.69150        0.28147        0.08433
C         -1.27028        1.57074       -0.08397
C          0.09510        1.79903       -0.13874
N          0.39580        3.10157       -0.44745
C          1.05825        0.74058       -0.00173
C          2.42390        1.11972        0.17067
N          2.75708        2.36922        0.63151
C          3.58201        0.37099       -0.00433
C          3.72422       -0.95831       -0.32022
C          2.74042       -1.91790       -0.33488
C          1.37224       -1.79632       -0.10678
N          0.82014       -3.05124       -0.07401
C          0.57167       -0.61709       -0.00131
H         -3.38914       -2.46530        0.29531
H         -1.99214        2.37965       -0.18099
H         -0.34785        3.70592       -0.77824
H          1.34286        3.31024       -0.74736
H          3.69636        2.52006        0.98155
H          2.01419        2.94467        1.01512
H          4.52950        0.89907        0.09961
H          4.74074       -1.30880       -0.48322
H          3.12367       -2.92338       -0.50842
H          1.43808       -3.85007        0.01059
H         -0.12870       -3.15426        0.26687
