28
Coordinates from ORCA-job ./opt_b97-3c_parallel
N          3.67853        1.89673       -0.48298
C          2.80571        1.24874       -0.29164
N          1.87318        2.17092        0.14715
C          0.61113        1.69407        0.49515
C          0.00306        0.41000        0.19287
C          0.69493       -0.80053        0.03234
C         -0.02629       -1.95847       -0.28301
N          0.56534       -3.17307       -0.50038
C         -1.46302       -1.98932       -0.39747
C         -2.09977       -0.72169       -0.17924
N         -3.41214       -0.53279       -0.20301
C         -3.48928        0.82574        0.08311
N         -4.47824        1.31168        0.15172
N         -2.33799        1.42817        0.26005
C         -1.44476        0.50154        0.11057
C          2.13131       -0.86126        0.18880
N          2.75696       -1.40405        0.91930
N          2.91852       -0.03452       -0.42530
H          3.85624        2.89337       -0.60810
H          4.59015        1.44394       -0.55645
H          0.38630        2.75200        0.70420
H         -0.00076       -3.95062       -0.83005
H          1.56867       -3.23169       -0.64536
H         -2.04187       -2.88677       -0.60365
H         -4.77703        2.26867        0.34127
H         -5.33759        0.76658        0.06865
H          2.16254       -2.22826        1.00739
H          3.68681       -1.69598        1.22186
