28
Coordinates from ORCA-job ./opt_b97-3c_parallel
N          4.37910        2.12547       -0.11813
C          3.52489        1.36645       -0.06076
C          2.45860        0.38258        0.01711
C          2.94451       -0.87230        0.36488
C          2.28251       -2.07798        0.46100
C          0.97215       -2.37266        0.12538
N          0.71196       -3.72331        0.14814
C         -0.05986       -1.46907       -0.19484
C         -1.24130       -2.10055       -0.76567
N         -2.14667       -2.61697       -1.23707
C         -0.03825       -0.05010       -0.12179
C          1.11561        0.79474       -0.14039
N          0.96899        2.15109       -0.29165
C         -0.23566        2.74559       -0.33232
C         -1.37179        1.98450       -0.16798
C         -2.71721        2.42315        0.00069
N         -2.75411        1.30654        0.16485
C         -2.58403        0.20485        0.33178
N         -3.56004       -0.59879        0.84391
C         -1.27777        0.64119       -0.06519
H          4.01181       -0.94132        0.57325
H          2.91485       -2.91779        0.74573
H         -0.16294       -4.05962       -0.24215
H          1.48664       -4.37380        0.21450
H         -0.25716        3.83087       -0.40968
H         -3.09140        3.43143        0.12871
H         -4.52415       -0.28757        0.83349
H         -3.38315       -1.59368        0.93446
