31
Coordinates from ORCA-job ./opt_b97-3c_parallel
N         -4.34973        2.97973       -0.08860
C         -3.66106        2.06747       -0.07306
C         -2.77694        0.92647       -0.05511
C         -1.39656        1.15936       -0.06602
C         -0.36934        0.19049       -0.05957
C         -0.60825       -1.20249       -0.05227
C         -1.94874       -1.73293        0.00078
N         -3.01378       -1.44902        0.06470
C         -3.34689       -0.40035       -0.01390
N         -4.68880       -0.67108       -0.05322
C          0.46417       -2.10823       -0.08818
N          0.25639       -3.46071       -0.11328
C          1.77476       -1.64358       -0.10436
C          2.02063       -0.27666       -0.08627
C          3.35592        0.24950       -0.08950
C          4.66586       -0.27964        0.12385
N          5.71376       -0.71451       -0.01693
C          2.73708        1.55174       -0.04803
N          3.54706        2.65100        0.02946
C          1.37044        2.00754       -0.05297
C          0.97019        0.62769       -0.06832
H         -1.11119        2.20720       -0.09261
H         -2.29369       -2.64579        0.47533
H         -5.02322       -1.61065        0.12955
H         -5.35746        0.09078       -0.01833
H          1.04243       -4.06588       -0.32454
H         -0.67282       -3.80193       -0.33400
H          2.60507       -2.34692       -0.12782
H          3.13627        3.55146        0.24968
H          4.53360        2.51467        0.22487
H          0.97525        2.78048        0.59937
