33
Coordinates from ORCA-job ./opt_b97-3c_parallel
N          4.73725        2.29027        0.45311
C          3.94492        1.48780        0.27390
C          2.93506        0.49042        0.08304
C          3.25400       -0.83637       -0.08284
N          4.43347       -1.48212       -0.03733
C          1.97868       -1.30714       -0.32322
C          1.66122       -2.49946        0.40290
N          1.36366       -3.44131        0.97737
C          0.88703       -0.36783       -0.34428
C          1.54545        0.79416       -0.04242
N          0.98498        2.00345        0.17198
C         -0.35772        2.12394        0.06880
N         -0.80360        3.40013        0.27440
C         -1.22581        1.05652       -0.24094
C         -2.63161        1.38163       -0.43775
N         -3.48395        2.08402       -0.48006
N         -3.72640        0.63081       -0.02358
C         -3.52059       -0.72450        0.15583
N         -4.40644       -1.23345        0.56938
N         -2.56538       -1.50802       -0.23047
C         -1.29586       -1.44261       -0.47385
N         -1.41454       -2.53756       -0.54624
C         -0.54568       -0.21525       -0.43644
H          5.24278       -1.03171        0.38749
H          4.46537       -2.47088        0.20681
H         -1.78438        3.56787        0.46803
H         -0.13523        4.09538        0.59418
H         -4.35691        2.55250       -0.72178
H         -2.73379        2.67968       -0.82986
H         -4.38199       -2.18163        0.94275
H         -5.11247       -0.73040        1.10529
H         -0.47386       -2.42941       -0.92317
H         -1.70231       -3.48686       -0.78239
