28
Coordinates from ORCA-job ./opt_b97-3c_parallel
N         -5.14160       -0.60748        0.08729
C         -4.01912       -0.81382        0.04499
C         -2.61969       -1.10899       -0.02146
C         -2.40477       -2.42635        0.26489
C         -1.10965       -2.65224        0.47551
C         -0.38979       -1.36361        0.30979
C         -1.35886       -0.43299       -0.00940
C         -1.08340        0.91515       -0.26439
C         -2.16527        1.82093       -0.58105
N         -3.01659        2.54558       -0.81990
C          0.24067        1.38072       -0.14956
N          0.51581        2.71664       -0.30714
C          1.27847        0.48771        0.17787
C          2.56287        0.97348        0.59146
N          3.21398        1.75123        1.02539
N          3.75703        0.51740        0.21031
C          3.97218       -0.62666       -0.46205
N          3.16741       -1.74342       -0.65147
C          1.84596       -1.89730       -0.24861
C          0.97131       -0.90865        0.31998
H         -3.17138       -3.19932        0.29929
H         -0.74530       -3.65144        0.70109
H         -0.21265        3.31896       -0.67706
H          1.47988        3.00062       -0.44496
H          3.98392        2.40188        1.16463
H          2.35004        2.27342        1.15497
H          4.92034       -1.02720       -0.85076
H          1.82523       -2.95898       -0.53692
