32
Coordinates from ORCA-job ./opt_b97-3c_parallel
N         -5.21232       -0.33291        0.78577
C         -4.11037       -0.38206        0.48902
C         -2.71904       -0.40166        0.10069
C         -2.09083       -1.69322        0.06750
N         -2.41783       -2.71818        0.33203
C         -1.01630       -1.94853       -0.72925
C          0.19801       -1.49062       -0.31649
N          0.61628       -2.50911       -0.40674
C          0.44691       -0.09440       -0.08674
C         -0.52771        0.89805       -0.20202
C         -0.05208        2.27338       -0.15811
N         -0.11603        3.37801       -0.15416
N          1.25286        2.71564        0.02487
C          2.14673        1.72280        0.18854
N          3.49374        1.90096        0.40471
C          4.04543        0.63252        0.51419
C          3.03886       -0.37900        0.35793
C          3.32443       -1.77155        0.47190
N          3.60467       -2.87634        0.57329
C          1.81325        0.34247        0.14323
C         -1.99756        0.75362       -0.24965
N         -2.60207        1.68051       -0.38450
H         -3.33050       -2.52610        0.74300
H         -2.10811       -3.60621        0.72422
H         -1.21001       -2.07673       -1.80055
H          1.08463       -2.49560       -1.31039
H          0.45323       -3.49258       -0.18921
H         -0.14441        4.39469       -0.22447
H         -1.03709        3.08775        0.17565
H          5.10178        0.38615        0.70443
H         -2.50981        2.29464       -1.19322
H         -3.60672        1.55671       -0.25345
