28
Coordinates from ORCA-job ./opt_b97-3c_parallel
N         -5.24724        0.36113        0.14857
C         -4.13688        0.08830        0.11708
C         -2.74042       -0.27265        0.07041
C         -2.41397       -1.62949        0.05486
C         -1.13786       -2.20486        0.01664
C          0.12694       -1.58926       -0.00451
C          1.22378       -2.47027       -0.03035
C          2.53664       -2.00554       -0.04556
C          2.73462       -0.63587       -0.03843
C          3.93094        0.05458       -0.04764
C          3.69264        1.48263       -0.05152
C          2.24313        1.52413       -0.00894
N          1.51406        2.67794        0.04207
C          1.68969        0.24592       -0.01593
C          0.35488       -0.19305        0.00073
N         -0.65724        0.68880        0.01761
C         -1.74871        0.76783        0.03016
N         -2.02497        2.10339       -0.06653
H         -3.24564       -2.33107        0.07591
H         -1.14379       -3.29274        0.00898
H          1.06079       -3.54619       -0.03616
H          3.37602       -2.69662       -0.06220
H          4.87525       -0.48448       -0.05621
H          4.38729        2.27112        0.21932
H          1.99120        3.54293        0.26990
H          0.52682        2.60457        0.26412
H         -1.28420        2.75492       -0.29667
H         -2.98401        2.40441       -0.20304
