28
Coordinates from ORCA-job ./opt_b97-3c_parallel
N          4.17713        2.10699        0.22483
C          3.40284        1.26498        0.22633
C          2.04838        0.77920        0.14438
C          0.87281        1.52917        0.15166
N          0.96764        2.63524        0.20902
C         -0.43723        0.89299        0.07134
C         -1.52994        1.74849       -0.05286
N         -2.85716        1.61971       -0.24471
C         -3.35579        0.35166       -0.07322
N         -4.39660        0.64957       -0.29394
C         -2.91033       -0.81686        0.45223
C         -1.72143       -1.30262       -0.00896
N         -2.09416       -2.34064       -0.11778
C         -0.48016       -0.55801       -0.00559
C          0.70019       -1.26713       -0.06578
N          0.93096       -2.57185       -0.14487
C          2.31551       -2.61403       -0.11702
N          2.96870       -1.48882       -0.02571
C          1.97479       -0.66080        0.01234
H          0.99812        3.22885        1.03673
H          1.78942        2.87973       -0.34477
H         -1.65127        2.84111       -0.11788
H         -5.02300       -0.15240       -0.23124
H         -4.98069        1.44488       -0.55107
H         -3.23521       -1.06630        1.46781
H         -1.13404       -2.66919       -0.22594
H         -2.67531       -3.17694       -0.17782
H          2.99901       -3.47688       -0.15143
