31
Coordinates from ORCA-job ./opt_b97-3c_parallel
N          5.23463       -0.71357        0.07751
C          4.13821       -0.39048        0.08299
C          2.75095        0.02899        0.07158
C          2.39896        1.38944        0.09440
N          3.39901        2.32802        0.14520
C          1.09332        1.90960        0.06996
C         -0.15769        1.26707        0.03573
N         -1.22402        2.11809        0.01801
C         -2.48414        1.63672       -0.00531
N         -3.49795        2.54941       -0.03132
C         -2.71418        0.26988       -0.00432
C         -3.90544       -0.43133       -0.01304
C         -3.65870       -1.85952       -0.01081
C         -2.20750       -1.88673        0.01896
N         -1.46335       -3.03103        0.06913
C         -1.66748       -0.60412        0.01310
C         -0.34322       -0.13755        0.02660
N          0.68216       -1.00121        0.02352
C          1.77358       -1.02487        0.02246
N          2.04002       -2.35744       -0.13856
H          4.36155        2.03264        0.01668
H          3.16979        3.30610        0.00730
H          1.04004        2.99801        0.08452
H         -3.26471        3.51821       -0.21764
H         -4.43101        2.23069       -0.26567
H         -4.85710        0.09388       -0.01643
H         -4.33029       -2.63604        0.34097
H         -0.47831       -2.94724        0.29657
H         -1.93048       -3.90294        0.29324
H          1.28768       -2.99837       -0.36485
H          2.99284       -2.66033       -0.30890
