30
Coordinates from ORCA-job ./opt_b97-3c_parallel
N          5.30209        2.45622       -0.37616
C          4.32154        1.87533       -0.29061
C          3.09011        1.13215       -0.16698
C          3.17914       -0.23398       -0.33420
C          2.20138       -1.21537       -0.18278
C          2.79575       -2.52649       -0.36972
N          3.27748       -3.55132       -0.52623
C          0.80123       -1.07242        0.03890
C          0.08311       -2.28967        0.16840
C         -1.28861       -2.36759        0.32469
N         -1.90493       -3.57206        0.50661
C         -2.07014       -1.18724        0.27793
C         -3.43979       -0.80971        0.01744
C         -3.52074        0.51006       -0.36359
C         -4.72903        1.20986       -0.71170
N         -5.69579        1.76067       -0.97231
C         -2.25444        1.03563       -0.37502
C         -1.35549        0.05195        0.04721
C          0.06649        0.15362        0.12438
C          0.64234        1.44073        0.32231
C         -0.14070        2.52120        0.89096
N         -0.73435        3.38651        1.34506
C          1.96818        1.85306        0.19356
H          4.18387       -0.59064       -0.57171
H          0.57881       -3.25497        0.18807
H         -2.91735       -3.62616        0.49772
H         -1.36298       -4.42854        0.46732
H         -4.33545       -1.42502        0.06343
H         -2.02727        2.04086       -0.71754
H          2.16130        2.91048        0.38202
