29
Coordinates from ORCA-job ./opt_b97-3c_parallel
N          4.62284       -1.62030       -0.08586
C          3.54595       -1.23863       -0.04466
C          2.18751       -0.74431       -0.00600
C          1.07072       -1.58906        0.10236
N          1.28900       -2.94437        0.15623
C         -0.24549       -1.05259        0.12960
C         -1.32987       -1.95284        0.25787
C         -2.69094       -1.64656        0.21378
C         -3.22161       -0.33877       -0.05032
N         -4.51749       -0.13485       -0.42869
N         -2.80441        0.68291       -0.04926
C         -1.74055        0.95777        0.06742
N         -2.03128        2.20857        0.54731
C         -0.42206        0.35533        0.03903
C          0.71356        1.17078       -0.07639
N          0.80482        2.51798       -0.18117
C          1.89219        2.81012       -0.23918
C          2.83105        1.71443       -0.20394
C          1.95218        0.61772       -0.08904
H          0.50730       -3.56907       -0.00436
H          2.21937       -3.29070       -0.05456
H         -1.12650       -3.00893        0.40391
H         -3.42432       -2.43874        0.34586
H         -4.81434        0.78803       -0.72521
H         -5.11228       -0.92530       -0.64877
H         -1.27318        2.87690        0.63530
H         -2.96379        2.58288        0.41170
H          2.07956        3.87534       -0.30423
H          3.91505        1.75894       -0.23017
