27
Coordinates from ORCA-job ./opt_b97-3c_parallel
N          2.60020       -3.07446       -0.10062
C          2.28725       -1.97536       -0.08078
C          1.87298       -0.60726       -0.02466
C          2.74851        0.54756       -0.01168
N          4.10883        0.43401       -0.05926
N          2.37169        1.60646        0.02506
C          1.03429        1.43096        0.02898
C          0.06006        2.41791        0.05966
C         -1.29106        2.05414        0.04098
N         -2.20418        3.07305        0.08962
C         -1.68230        0.69345       -0.01703
C         -3.05698        0.37965       -0.09750
C         -3.61480       -0.89974       -0.15933
C         -2.86202       -2.12223       -0.10626
N         -1.80690       -2.40830        0.04088
C         -0.95997       -1.70702       -0.03154
C         -0.67092       -0.29559       -0.01335
C          0.65980        0.12174        0.00336
H          4.67217        1.26306       -0.21089
H          4.53163       -0.46982       -0.24167
H          0.35208        3.46543        0.09409
H         -3.16199        2.84777        0.33313
H         -1.87220        4.00559        0.31146
H         -3.77985        1.18890       -0.13666
H         -4.69171       -1.02243       -0.24525
H         -3.22786       -3.12830        0.06585
H         -0.43354       -2.51211        0.47103
