30
Coordinates from ORCA-job ./opt_b97-3c_parallel
N         -5.38251        2.31889        0.68526
C         -4.41293        1.74359        0.49494
C         -3.19880        1.00367        0.24940
C         -3.29810       -0.37344        0.28742
C         -2.32820       -1.34354        0.04033
C         -2.93837       -2.65962        0.06536
N         -3.43641       -3.68908        0.08387
C         -0.92301       -1.18944       -0.13541
C         -0.19039       -2.40013       -0.24353
C          1.18275       -2.46271       -0.37162
C          1.94608       -1.26906       -0.36755
C          3.23202       -0.76849        0.04219
N          4.21146       -1.71929        0.12661
C          3.51467        0.60832        0.35284
C          4.62645        1.48515        0.55570
N          5.74029        1.55181        0.79417
C          2.11918        0.93494        0.30523
C          1.23532       -0.05002       -0.13233
C         -0.19066        0.03982       -0.18870
C         -0.77752        1.32749       -0.34701
C         -0.02096        2.41167       -0.94348
N          0.55069        3.27904       -1.41963
C         -2.09053        1.73851       -0.12429
H         -4.30350       -0.74264        0.50473
H         -0.66490       -3.37534       -0.24375
H          1.68089       -3.42558       -0.45467
H          5.17818       -1.42328        0.21552
H          4.02422       -2.65780       -0.20885
H          1.80976        1.89024        0.71861
H         -2.28560        2.80565       -0.24964
