30
Coordinates from ORCA-job ./opt_b97-3c_parallel
N         -5.35766        2.42313        0.00219
C         -4.47231        1.69996        0.00329
C         -3.35981        0.77056        0.00333
C         -2.10348        1.37682        0.00137
C         -0.80480        0.84459        0.00056
C          0.18229        1.84637       -0.00120
C          1.54197        1.56671       -0.00156
C          2.46850        2.67201       -0.00349
N          3.18722        3.56140       -0.00570
C          1.92667        0.22971       -0.00107
C          3.20894       -0.32160       -0.00129
C          4.48924        0.34034       -0.00200
N          5.51461        0.84475       -0.00270
C          3.07148       -1.69270       -0.00109
C          1.72138       -1.99839       -0.00096
C          1.30381       -3.37800       -0.00082
N          0.98730       -4.47633        0.00272
C          0.98102       -0.79559       -0.00044
C         -0.41716       -0.51925        0.00056
C         -1.32361       -1.58881        0.00233
C         -2.70986       -1.62691        0.00414
C         -3.63922       -0.59910        0.00486
N         -4.94524       -1.02238        0.00828
H         -2.15506        2.46588        0.00068
H         -0.10777        2.89637       -0.00167
H          3.88751       -2.41251       -0.00118
H         -0.93965       -2.58852        0.00291
H         -3.12180       -2.63527        0.00535
H         -5.70094       -0.34506        0.00099
H         -5.16149       -2.01307        0.00114
