22
Coordinates from ORCA-job ./opt_b97-3c_parallel
N          0.26690        2.99576        0.27558
C          0.08484        1.91696        0.14672
N          1.40972        1.66027        0.17681
C          1.89114        0.41325        0.04077
N          3.20093        0.00955        0.02701
C          3.15644       -1.37125       -0.15123
N          1.84488       -1.83112       -0.24689
C          1.06074       -0.71222       -0.12636
C         -0.36710       -0.54971       -0.13384
C         -1.11137       -1.73800        0.20355
N         -2.21521       -1.77141        0.18570
C         -3.11379       -1.13021        0.10597
C         -3.21928        0.17942       -0.26969
C         -2.24635        1.12566       -0.09188
C         -0.83668        0.81899       -0.03445
H         -0.67409        3.17011        0.62606
H          0.68088        3.90981        0.09493
H          4.00825       -2.06659       -0.21644
H         -0.92680       -2.74857        0.59965
H         -4.03292       -1.71339       -0.06121
H         -4.17034        0.50744       -0.68444
H         -2.52970        2.17028       -0.00224
