26
Coordinates from ORCA-job ./opt_b97-3c_parallel
N          3.23375       -1.86709        0.10821
C          2.72782       -0.89362        0.04855
N          3.72302        0.04020       -0.15148
C          3.21170        1.31979       -0.25768
N          1.93441        1.83761       -0.20125
C          0.65685        1.45865       -0.03974
N         -0.33775        2.38141       -0.05307
C         -1.60941        1.98763        0.15806
C         -1.90551        0.67019        0.47378
C         -3.09640       -0.07643        0.17898
N         -4.12975        0.31272        0.17892
C         -2.83032       -1.37067       -0.14992
C         -1.52519       -1.59050       -0.07929
N         -0.96668       -2.78079       -0.34936
C         -0.97150       -0.40906        0.32671
C          0.38215        0.08006        0.13259
N          1.35617       -0.84731        0.16370
H          4.21233       -1.78091        0.37373
H          2.84380       -2.63887        0.64315
H          3.87706        2.18088       -0.41833
H         -2.38350        2.74143        0.03154
H         -4.25216        1.29292       -0.06644
H         -5.00015       -0.16159       -0.05384
H         -3.57328       -2.11354       -0.43528
H         -1.46417       -3.64198       -0.13255
H          0.02309       -2.92981       -0.15865
