30
Coordinates from ORCA-job ./opt_b97-3c_parallel
N         -5.28850       -1.42440       -0.53132
C         -4.20060       -1.09724       -0.40425
C         -2.83332       -0.66832       -0.23033
C         -2.54031        0.69103       -0.34517
C         -1.30315        1.35738       -0.21973
C         -1.47666        2.76141       -0.52720
N         -1.63949        3.86110       -0.79380
C          0.00038        0.79886       -0.00312
C          1.13852        1.60632        0.29194
C          1.09757        2.95813        0.80205
N          1.08969        4.02116        1.22349
C          2.42371        1.07281        0.28238
C          2.68388       -0.26010       -0.15160
C          3.55439       -1.40643       -0.16596
N          4.82606       -0.90587       -0.17323
C          3.23275       -2.80872       -0.13666
C          1.84196       -2.46955       -0.09601
C          1.53905       -1.11388       -0.08704
C          0.22974       -0.59971       -0.05934
N         -0.78120       -1.47893       -0.04554
C         -1.85054       -1.68200        0.00902
N         -2.07961       -2.84090        0.69472
H         -3.40822        1.31755       -0.55650
H          3.28890        1.66368        0.57774
H          4.96475        0.08288       -0.35187
H          5.60363       -1.53685       -0.33189
H          3.68714       -3.56750       -0.76543
H          1.07407       -3.23884       -0.07015
H         -3.03279       -3.16851        0.81176
H         -1.33195       -3.51767        0.79439
