28
Coordinates from ORCA-job ./opt_b97-3c_parallel
N          4.14387       -2.22374        0.09032
C          3.15617       -1.64890        0.07482
C          1.90970       -0.92677        0.03899
C          0.69211       -1.60901        0.11507
C         -0.55226       -0.93792        0.05759
C         -1.74502       -1.70240        0.09053
N         -1.70440       -3.04426        0.36321
C         -3.02019       -1.19334       -0.17965
C         -3.29074        0.15790       -0.59284
N         -2.80070        1.12399       -0.37187
C         -1.76667        1.25371       -0.00780
N         -1.99648        2.23539        0.91753
C         -0.54998        0.47557       -0.04208
C          0.67805        1.13535       -0.12927
C          0.95707        2.49045       -0.25763
C          2.33988        2.63094       -0.29541
C          2.91304        1.36927       -0.19171
C          1.87405        0.45472       -0.09054
H          0.73428       -2.69253        0.19136
H         -2.57994       -3.52515        0.53774
H         -0.86943       -3.42180        0.79642
H         -3.90009       -1.83249       -0.15016
H         -4.14411        0.53686       -1.14260
H         -1.21437        2.62683        1.43054
H         -2.85099        2.77807        0.86809
H          0.23350        3.29906       -0.32342
H          2.88076        3.56937       -0.39024
H          3.97721        1.14525       -0.18986
