27
Coordinates from ORCA-job ./opt_b97-3c_parallel
N          4.53028        2.25248       -0.23362
C          3.59406        1.60305       -0.14435
C          2.40969        0.78278       -0.05195
C          2.63523       -0.58585       -0.00927
C          1.70162       -1.60960        0.04519
C          2.23810       -2.94792        0.10539
N          2.66002       -4.00819        0.16869
C          0.31472       -1.50405        0.02802
C         -0.51358       -0.37461        0.01452
C         -0.12943        0.99134        0.04648
C          1.19524        1.46512       -0.00234
C         -1.15700        1.97803        0.10892
N         -0.90044        3.32104        0.21358
C         -2.51002        1.63514        0.08313
C         -2.86475        0.30452        0.00140
N         -4.10965       -0.21465       -0.05430
C         -3.98510       -1.33204       -0.11824
C         -2.63502       -1.84230       -0.10311
C         -1.89088       -0.64121       -0.02087
H          3.68050       -0.89682       -0.02348
H         -0.19043       -2.46591        0.04253
H          1.33031        2.54248       -0.02599
H          0.03156        3.61656        0.48104
H         -1.67035        3.93859        0.44718
H         -3.28217        2.40135        0.12203
H         -4.92358       -1.86819       -0.19352
H         -2.32460       -2.87908       -0.17536
