34
Coordinates from ORCA-job ./opt_b97-3c_parallel
N         -5.34146       -1.85335        1.00232
C         -4.36236       -1.36550        0.67114
C         -3.11531       -0.73950        0.27121
C         -3.11674        0.63742        0.44008
C         -2.13034        1.57962        0.16855
C         -2.64160        2.92975        0.31236
N         -3.05956        3.98883        0.41550
C         -0.76101        1.35071       -0.09580
C          0.06108        2.48342       -0.26280
C          1.41515        2.39530       -0.53597
N          2.14218        3.53166       -0.75120
C          2.12295        1.15969       -0.41236
C          3.49826        0.87684       -0.11377
C          3.52697       -0.46916        0.38409
C          4.90522       -0.80327        0.56818
N          5.68930       -1.40735        1.14077
C          2.18824       -0.99072        0.42306
N          2.15739       -2.22521        1.00830
C          1.31820        0.00216       -0.15491
C         -0.14203        0.09217       -0.28059
C         -0.79313       -1.11735       -0.62562
C          0.00767       -2.08466       -1.36678
N          0.62206       -2.84358       -1.96228
C         -2.11806       -1.51372       -0.33926
N         -2.46603       -2.82012       -0.62597
H         -4.06366        1.04721        0.79837
H         -0.33873        3.49332       -0.23887
H          3.15381        3.48219       -0.70157
H          1.70042        4.43182       -0.59760
H          4.15596        1.72548        0.06113
H          1.33619       -2.80118        0.85880
H          3.04115       -2.70578        1.14311
H         -1.73865       -3.47649       -0.89060
H         -3.33022       -3.19330       -0.24629
