28
Coordinates from ORCA-job ./opt_b97-3c_parallel
N         -5.11436       -0.68242       -0.05757
C         -4.02321       -0.34152       -0.04462
C         -2.64167        0.08395       -0.05082
C         -2.54208        1.45432       -0.48035
N         -1.81925        2.27196       -0.30622
C         -0.78760        2.08500        0.03438
N         -0.63558        3.18331        0.83636
C          0.18150        1.01821       -0.02839
C          1.51941        1.40770       -0.19656
C          2.54159        0.46657       -0.20089
C          3.91488        0.85765       -0.38508
N          5.00401        1.16586       -0.54467
C          2.17451       -0.85503       -0.01633
C          2.95286       -2.03072        0.02323
C          1.93319       -3.03469        0.20233
N          0.88542       -2.62424        0.24764
C          0.88551       -1.27351        0.13375
C         -0.18668       -0.34799        0.10957
C         -1.54641       -0.76548        0.20041
N         -1.85953       -2.06505        0.51347
H         -3.32835        2.11883       -0.82112
H          0.25552        3.36425        1.28464
H         -1.31291        3.93698        0.79558
H          1.76530        2.46082       -0.31942
H          4.02618       -2.17436       -0.04962
H          2.03389       -4.10945        0.29540
H         -2.81547       -2.38497        0.40025
H         -1.11850       -2.75740        0.54052
