28
Coordinates from ORCA-job ./opt_b97-3c_parallel
N          5.90392       -0.21826        0.62623
C          4.80003       -0.42064        0.41180
C          3.40634       -0.67609        0.16278
C          2.85124       -1.91094       -0.12188
C          1.48240       -1.71783       -0.19650
C          0.51078       -2.67613       -0.39157
C         -0.81574       -2.27284       -0.31154
C         -1.17905       -0.92749       -0.08155
C         -2.55520       -0.65634        0.07517
C         -3.62051       -1.63265        0.06970
N         -4.45866       -2.40968        0.08092
C         -3.11855        0.61073        0.45469
N         -2.84777        1.67669        0.36395
C         -1.83250        1.98886        0.06833
N         -2.25582        3.18449       -0.45923
C         -0.47981        1.46300        0.03300
C          0.46389        2.54324       -0.15940
N          1.19108        3.40886       -0.33507
C         -0.16651        0.07897       -0.00327
C          1.17192       -0.38404        0.00075
C          2.38722        0.26325        0.24480
H          3.38222       -2.85482       -0.21908
H          0.77089       -3.72020       -0.55165
H         -1.56764       -3.05019       -0.41878
H         -4.02017        0.81246        1.02347
H         -1.56502        3.87149       -0.74218
H         -3.19087        3.51928       -0.25358
H          2.55155        1.29695        0.52343
