32
Coordinates from ORCA-job ./opt_b97-3c_parallel
N         -5.89947        0.35900       -0.75588
C         -5.05655        0.77656       -0.10503
C         -3.66314        0.62423        0.17922
C         -2.74412        1.72060        0.26994
C         -1.39550        1.41047        0.29965
C         -0.41616        2.39135        0.25750
C          0.92414        2.03193        0.12924
C          1.88617        3.11079        0.04900
N          2.63966        3.96831        0.00516
C          1.32902        0.68145        0.06668
N          2.62262        0.41465       -0.15675
C          3.37285       -0.35644       -0.31470
N          4.38711        0.16471       -1.06224
C          3.17004       -1.75575       -0.12105
C          1.96330       -2.37224        0.21538
N          2.07004       -3.73337        0.37109
C          0.70027       -1.74037        0.37453
C         -0.39238       -2.61269        0.77232
N         -1.24099       -3.30211        1.10692
C          0.38877       -0.35818        0.23621
C         -1.00837        0.03244        0.30641
C         -2.40335       -0.03724       -0.06361
N         -2.66378       -1.09352       -0.89510
H         -3.07317        2.75762        0.24329
H         -0.69885        3.44261        0.27224
H          5.17603       -0.41533       -1.32461
H          4.48077        1.17078       -1.15069
H          4.07996       -2.34064       -0.24218
H          1.28894       -4.24714        0.76631
H          2.98990       -4.15926        0.39605
H         -3.63394       -1.34727       -1.05060
H         -1.97735       -1.83867       -0.94578
