30
Coordinates from ORCA-job ./opt_b97-3c_parallel
N          4.30526        3.32094        0.00159
C          3.54770        2.46466        0.00189
C          2.60751        1.36455        0.00201
C          1.27994        1.89317        0.00174
N          0.39319        1.26160        0.00147
C         -0.13563        0.03542        0.00107
C          0.67360       -1.13061        0.00079
C         -0.00254       -2.38257       -0.00001
C         -1.39007       -2.49259       -0.00046
C         -2.13124       -1.32971       -0.00033
C         -3.50269       -1.18358       -0.00015
C         -3.89066        0.21419        0.00066
C         -5.27678        0.55894        0.00125
N         -6.19661        1.23733        0.00159
C         -2.57092        0.82489        0.00118
N         -2.40093        2.18095        0.00225
C         -1.53509       -0.10734        0.00080
C          2.10596       -1.11639        0.00132
C          2.78256       -2.40498        0.00109
N          3.32743       -3.41078        0.00077
C          2.98267        0.00940        0.00193
N          4.34464       -0.21335        0.00319
H          0.95498        2.92728        0.00173
H          0.52647       -3.33014       -0.00044
H         -1.87233       -3.46739       -0.00118
H         -4.14478       -2.06158       -0.00074
H         -1.46709        2.57551        0.00215
H         -3.20970        2.79359        0.00226
H          4.70732       -1.16132       -0.00101
H          4.99158        0.56840       -0.00053
