25
Coordinates from ORCA-job ./opt_b97-3c_parallel
N         -4.89766       -1.62939       -0.09250
C         -3.76408       -1.51046       -0.00965
C         -2.57259       -0.72253        0.03163
C         -1.21304       -1.24091        0.01806
C         -0.27841       -0.22093        0.01664
C         -0.94683        0.96107        0.02695
C         -0.24426        2.15641        0.03036
N          1.10918        2.15421        0.01942
C          1.79688        0.97461        0.00647
C          3.19631        1.09948       -0.00979
C          4.18274        0.10558       -0.03053
C          3.99504       -1.27539       -0.03363
C          2.72411       -1.93310       -0.00887
N          1.73990       -1.45485       -0.00146
C          1.11667       -0.26729        0.00666
C         -2.30593        0.70803        0.03422
N         -3.21860        1.72541        0.04111
H         -0.89639       -2.28095        0.00949
H         -0.73703        3.12635        0.04238
H          3.58129        2.11766       -0.00943
H          5.21375        0.45067       -0.04666
H          4.85381       -1.94196       -0.05236
H          2.51381       -2.99335        0.06222
H         -2.90551        2.66548       -0.17267
H         -4.19496        1.49893       -0.11707
