25
Coordinates from ORCA-job ./opt_b97-3c_parallel
N          5.13307        1.21220        0.03127
C          4.12468        0.67408        0.02270
C          2.84497        0.01421        0.01327
C          2.88271       -1.42424        0.00850
N          2.16354       -2.26122        0.00190
C          1.06722       -2.14323        0.00383
C          0.04433       -1.12964        0.00347
C         -1.28911       -1.56776        0.00117
C         -2.34932       -0.65986        0.00081
C         -3.71333       -1.12540       -0.00071
N         -4.79849       -1.48374        0.00081
C         -2.03735        0.69452        0.00193
C         -2.88344        1.79447        0.00140
C         -2.08261        2.92861        0.00278
C         -0.75171        2.52784        0.00446
C         -0.72805        1.13642        0.00403
C          0.35655        0.24935        0.00568
C          1.66598        0.76513        0.01062
H          3.75065       -2.07453        0.00129
H          0.94974       -3.22151       -0.00098
H         -1.50231       -2.63498       -0.00021
H         -3.97081        1.77711        0.00021
H         -2.43629        3.95666        0.00259
H          0.10331        3.19827        0.00544
H          1.79321        1.84342        0.01379
