26
Coordinates from ORCA-job ./opt_b97-3c_parallel
N         -2.21670        2.76643       -0.26541
C         -1.38265        1.78154        0.10724
C         -0.05706        2.09272        0.18773
C          0.98767        1.10229        0.09988
N          2.25947        1.63125        0.16901
C          3.26525        0.72388        0.07895
N          3.82102       -0.50761       -0.05674
C          2.91843       -1.53987       -0.18705
C          1.47227       -1.47693       -0.16818
C          0.60896       -0.30545       -0.03283
C         -0.82027       -0.57039       -0.01348
C         -1.49266       -1.77342       -0.03418
N         -1.43868       -2.87700       -0.06321
C         -2.82426       -1.44573        0.02731
C         -2.98895       -0.12944        0.09286
C         -1.77616        0.48010        0.07394
H         -1.98010        3.73847       -0.07706
H         -3.22219        2.65586       -0.15270
H          0.25490        3.12750        0.30440
H          4.14163        1.38320        0.16804
H          3.39573       -2.52383       -0.30539
H          1.00639       -2.44486       -0.28347
H         -0.68436       -2.71311        0.60065
H         -2.00561       -3.63313        0.31551
H         -3.66183       -2.14660        0.02117
H         -3.94744        0.38054        0.14655
