27
Coordinates from ORCA-job ./opt_b97-3c_parallel
N         -4.65792       -2.24152        0.00073
C         -3.80070       -1.48510       -0.00366
C         -2.70332       -0.53763       -0.00342
C         -1.44167       -1.13501       -0.00164
C         -0.15676       -0.57987       -0.00036
C          0.87337       -1.54485        0.00175
C          2.21923       -1.18952        0.00297
C          3.25731       -2.18767        0.00503
N          4.08347       -2.97739       -0.00447
C          2.50656        0.16136        0.00192
C          3.73013        0.86073        0.00228
C          3.25867        2.22492        0.00046
N          2.13758        2.34854       -0.00062
C          1.55068        1.12709        0.00004
C          0.18217        0.79417       -0.00096
C         -0.71085        1.87056       -0.00229
C         -2.09837        1.88631       -0.00339
C         -3.00429        0.83210       -0.00405
N         -4.31990        1.22484       -0.00561
H         -1.47040       -2.22452       -0.00109
H          0.62967       -2.60593        0.00248
H          4.75503        0.50369        0.00339
H          3.82509        3.14855       -0.00012
H         -0.27997        2.86847       -0.00231
H         -2.53045        2.88582       -0.00385
H         -4.56074        2.20963       -0.00424
H         -5.05858        0.52879       -0.00392
