26
Coordinates from ORCA-job ./opt_b97-3c_parallel
N         -5.09120        2.69800        0.00133
C         -4.11753        2.10006        0.00088
C         -2.89716        1.33045        0.00057
C         -1.71451        2.05113        0.00090
C         -0.41055        1.58177        0.00065
C          0.08760        0.27280        0.00010
C         -0.65686       -0.94411       -0.00014
N          0.00949       -2.14462       -0.00057
C          1.35297       -2.22951       -0.00083
C          2.10717       -1.07906       -0.00081
C          3.48233       -0.93125       -0.00131
C          3.72631        0.43367       -0.00133
C          5.02785        1.04643       -0.00254
N          6.06784        1.52000       -0.00405
C          2.50943        1.10872       -0.00070
C          1.49282        0.15174       -0.00025
C         -2.06871       -1.05350       -0.00009
C         -2.67089       -2.37621       -0.00022
N         -3.16325       -3.40783       -0.00026
C         -3.03817       -0.04953        0.00010
H         -1.81085        3.13592        0.00140
H          0.31195        2.38955        0.00096
H          1.79230       -3.22552       -0.00126
H          4.22402       -1.72651       -0.00197
H          2.40196        2.18981       -0.00047
H         -4.07326       -0.39565       -0.00010
