26
Coordinates from ORCA-job ./opt_b97-3c_parallel
N          4.70466        1.62275        0.12980
C          3.57760        1.53180       -0.03972
C          2.47514        0.62062        0.00323
C          2.04587       -0.76064       -0.00639
N          3.21019       -1.48402       -0.04769
C          0.79034       -1.48111        0.00182
C          0.54847       -2.84322        0.36589
N          0.27837       -3.88159       -0.03009
C          0.19608       -0.17218       -0.01506
C          1.06774        0.90444       -0.00810
N          0.65179        2.19018       -0.01480
C         -0.67907        2.41421       -0.02442
C         -1.63849        1.39617       -0.02887
C         -2.98571        1.79141       -0.02427
C         -4.09065        0.93896        0.01316
C         -3.99985       -0.49479        0.07515
N         -3.19056       -1.23981       -0.00877
C         -2.10592       -1.04831       -0.06702
C         -1.18617        0.06173       -0.03351
H          4.09050       -1.00581        0.11914
H          3.17381       -2.48692        0.10244
H         -0.96913        3.46368       -0.02242
H         -3.20059        2.85775       -0.04014
H         -5.09699        1.35049        0.02132
H         -4.78451       -1.20731        0.30364
H         -2.01949       -1.98458       -0.60822
