30
Coordinates from ORCA-job ./opt_b97-3c_parallel
N         -3.64127       -3.11140        0.05989
C         -3.06407       -2.12425        0.05513
C         -2.32097       -0.88692        0.04773
C         -0.92297       -0.95519        0.05289
C         -0.02133        0.12968        0.05709
C         -0.42357        1.48293        0.07370
C         -1.81413        1.86265        0.03969
N         -2.83653        1.44837       -0.00396
C         -3.04195        0.36493        0.02876
N         -4.40667        0.47595        0.01874
C          0.55221        2.49117        0.11613
N          0.22081        3.81626        0.15111
N          1.87573        2.23775        0.12882
C          2.25337        0.94523        0.09298
C          3.64943        0.63787        0.08505
C          3.25713       -0.75004        0.01625
N          4.50594       -1.31219        0.06767
C          1.97482       -1.42095       -0.00810
C          1.95463       -2.77481       -0.47379
N          1.60197       -3.83789       -0.24378
C          1.36529       -0.11772        0.05290
H         -0.51632       -1.96020        0.06820
H         -2.26104        2.74204       -0.41188
H         -4.84429        1.37886       -0.12584
H         -4.98072       -0.35615       -0.06483
H          0.95049        4.48649        0.36671
H         -0.73680        4.07188        0.36370
H          4.38187        1.14045       -0.54108
H          4.59588       -2.30501       -0.12232
H          5.31684       -0.72386       -0.08902
