32
Coordinates from ORCA-job ./opt_b97-3c_parallel
N         -5.57239        0.74944        0.27115
C         -4.44338        0.57344        0.23541
C         -3.01657        0.36664        0.17505
C         -2.17406        1.42789        0.51199
C         -0.76612        1.47783        0.49505
C         -0.26929        2.76188        0.93715
N          0.10027        3.77917        1.30601
C          0.16035        0.43951        0.19240
C         -0.21915       -0.90939        0.04600
N         -1.50501       -1.26021       -0.10310
C         -2.53671       -0.92858       -0.20812
N         -3.23973       -1.86199       -0.91481
C          0.74733       -1.92089        0.13574
C          0.36235       -3.31915        0.09992
N          0.06945       -4.42424        0.07892
C          2.08295       -1.58650        0.35302
N          3.06647       -2.52184        0.54697
C          2.55877       -0.23650        0.23816
C          3.87016        0.25902       -0.06940
C          3.65196        1.59303       -0.54288
C          2.25387        1.91880       -0.54118
N          2.07304        3.08896       -1.22208
C          1.57287        0.79404        0.04814
H         -2.68655        2.34493        0.80378
H         -4.24392       -1.75898       -1.01419
H         -2.84622       -2.78860       -1.03867
H          2.84048       -3.50361        0.42492
H          4.03693       -2.23764        0.47160
H          4.84476       -0.16448       -0.29847
H          4.44720        2.25635       -0.87123
H          2.87763        3.69024       -1.36058
H          1.16579        3.53860       -1.15679
