29
Coordinates from ORCA-job ./opt_b97-3c_parallel
N          3.47284        3.37558        0.05686
C          2.96606        2.35076        0.02553
C          2.34332        1.04614       -0.01312
C          3.28848        0.00743       -0.10727
C          3.07585       -1.36934       -0.15186
C          1.81186       -2.02889       -0.04500
N          1.69767       -3.37859        0.11293
N          0.86802       -1.48178       -0.03234
C          0.23831       -0.29913       -0.00592
C          0.92365        0.93883        0.01968
C          0.14157        2.12186        0.06742
C         -1.25259        2.09287        0.07203
C         -1.87687        0.85674        0.03323
C         -3.26760        0.54950        0.01477
N         -4.36363        1.36188        0.01526
N         -2.75460       -0.46051       -0.01043
C         -2.08414       -1.37445       -0.02795
N         -2.02974       -2.73683       -0.05946
C         -1.16171       -0.28515        0.00149
H          4.33561        0.30037       -0.15776
H          3.92773       -2.03977       -0.23968
H          0.80504       -3.78096        0.37428
H          2.53101       -3.93891        0.25299
H          0.59524        3.10813        0.09358
H         -1.83223        3.01235        0.09993
H         -4.25639        2.35980        0.15614
H         -5.29285        0.96140        0.08332
H         -2.87037       -3.27174       -0.24204
H         -1.13230       -3.18753       -0.20205
