30
Coordinates from ORCA-job ./opt_b97-3c_parallel
N         -5.31348        0.45602       -1.07054
C         -4.23360        0.52908       -0.70375
C         -2.86226        0.62067       -0.26114
C         -2.39341        1.89748       -0.00701
C         -1.15843        2.24817        0.50389
C         -0.00729        1.47629        0.62651
N          0.96618        2.11539        1.34635
C          0.20417        0.13647        0.23392
C         -0.82661       -0.84279        0.16319
C         -2.19288       -0.58261       -0.05673
C         -0.47238       -2.21978        0.25331
N         -1.39405       -3.21993        0.42054
C          0.85170       -2.63865        0.19535
C          1.82253       -1.68080        0.02068
C          3.16589       -1.88873       -0.23295
C          3.72710       -0.64416       -0.44986
C          2.73247        0.31660       -0.30778
C          2.95611        1.68433       -0.71151
N          3.15332        2.76553       -1.02771
C          1.52992       -0.33064        0.03001
H         -3.10018        2.71649       -0.12977
H         -1.07893        3.29105        0.80794
H          1.87692        1.68061        1.44037
H          0.89112        3.11458        1.50160
H         -2.83935       -1.44291       -0.20460
H         -2.29199       -2.96683        0.81832
H         -1.04874       -4.14949        0.63038
H          1.11308       -3.69471        0.22050
H          3.66824       -2.84923       -0.32250
H          4.75444       -0.45789       -0.75510
