35
Coordinates from ORCA-job ./opt_b97-3c_parallel
N         -5.72166        1.93295       -1.31847
C         -4.69930        1.81626       -0.82069
C         -3.67077        0.90134       -0.44263
C         -2.27246        1.28217       -0.36454
C         -1.41345        0.25034        0.00910
C         -2.20039       -0.85838        0.10016
C         -1.61397       -2.07986        0.37397
N         -2.31096       -3.23558        0.57379
N         -0.27632       -2.17787        0.39668
C          0.56061       -1.10222        0.23205
C          1.93032       -1.44214        0.09219
C          2.26277       -2.86293        0.22764
N          2.53740       -3.96911        0.32324
C          3.00125       -0.61086       -0.30831
N          4.15776       -1.25552       -0.71927
C          3.05533        0.79788       -0.29255
C          4.32140        1.40532       -0.70219
N          5.31708        1.87781       -1.00729
C          2.07256        1.67923        0.19867
N          2.48274        2.98509        0.41544
C          0.70580        1.40545        0.42091
C         -0.04148        2.46998        1.08071
N         -0.61135        3.30761        1.61132
C         -0.00120        0.20426        0.17726
C         -3.52034       -0.51004       -0.15115
N         -4.54127       -1.41763       -0.21832
H         -1.92253        2.26810       -0.65778
H         -1.80066       -4.03521        0.93277
H         -3.28950       -3.15753        0.82771
H          5.00513       -0.71927       -0.87538
H          4.23012       -2.26420       -0.63102
H          1.86253        3.62593        0.90001
H          3.47492        3.19926        0.40307
H         -5.41708       -1.11344       -0.63063
H         -4.29724       -2.39704       -0.31704
