28
Coordinates from ORCA-job ./opt_b97-3c_parallel
N         -5.84038       -0.69224        0.10693
C         -4.74304       -0.37226        0.08381
C         -3.36614        0.04529        0.04783
C         -3.03580        1.40146        0.02837
C         -1.75438        1.96646       -0.00499
C         -0.49744        1.33973       -0.01189
N          0.57346        2.18477       -0.03978
C          1.83119        1.68739       -0.02957
N          2.85710        2.58570       -0.07255
C          2.04666        0.31383        0.01418
C          3.25611       -0.43924        0.06128
N          4.60399       -0.26119        0.17787
N          2.44322       -1.23045        0.04126
C          1.50349       -1.86654        0.05072
N          1.03846       -3.14941        0.05741
C          0.99959       -0.53187        0.02637
C         -0.31731       -0.06330        0.01311
N         -1.33275       -0.93889        0.02682
C         -2.42216       -1.03197        0.02526
H         -3.86523        2.10539        0.04064
H         -1.74104        3.05447       -0.01987
H          2.63668        3.54903       -0.29928
H          3.78067        2.24330       -0.31177
H          5.18968       -1.05663        0.40531
H          4.95893        0.66106        0.40461
H          1.67975       -3.92137       -0.08280
H          0.04650       -3.31858       -0.06935
H         -2.60191       -2.08882       -0.13178
