31
Coordinates from ORCA-job ./opt_b97-3c_parallel
N         -5.11690        1.11301       -0.22951
C         -3.97929        1.10561       -0.11836
C         -2.54189        1.07992        0.02858
C         -2.05853        2.27655        0.66823
N         -1.13322        2.84843        0.46481
C         -0.21218        2.45221        0.00214
N          0.01913        3.40200       -0.95585
C          0.43924        1.15826        0.02176
C          1.84245        1.11158        0.17441
N          2.55512        2.27399        0.34553
C          2.52083       -0.11647        0.15478
C          3.95762       -0.19100        0.31379
N          5.09326       -0.23402        0.43845
C          1.77939       -1.28499       -0.00023
N          2.25022       -2.55085        0.01334
C          1.33496       -3.19369       -0.07224
C          0.02530       -2.59194       -0.19200
C         -0.82011       -3.74793       -0.16521
N         -1.68090       -4.23494        0.40729
C          0.42164       -1.22683       -0.15657
C         -0.31848       -0.02881       -0.14948
C         -1.73054       -0.02015       -0.30838
N         -2.37301       -1.11518       -0.82571
H         -2.55652        2.90004        1.40186
H          0.86648        3.34904       -1.51045
H         -0.43346        4.30600       -0.87495
H          3.53279        2.21915        0.61224
H          2.05161        3.13653        0.52532
H          1.63880       -4.23390       -0.00794
H         -3.34930       -1.02175       -1.08733
H         -1.82550       -1.81932       -1.30716
