30
Coordinates from ORCA-job ./opt_b97-3c_parallel
N          4.84366       -2.44118       -0.13993
C          4.07102       -1.60132       -0.06425
C          3.09971       -0.52244        0.01857
C          3.72414        0.70294        0.20033
C          3.16097        1.95581        0.26162
C          1.83476        2.31337        0.13391
C          0.67734        1.52935       -0.00943
C         -0.53007        2.28054       -0.11777
N         -0.58383        3.64431       -0.22177
N         -1.76232        1.75205       -0.15566
C         -1.80123        0.42289       -0.08554
C         -2.97188       -0.37061       -0.05865
C         -4.33992        0.04444       -0.09939
N         -5.47633       -0.05139       -0.01639
C         -2.33144       -1.66115        0.03050
N         -3.05511       -2.81664        0.09729
N         -1.21069       -1.67923        0.04701
C         -0.72729       -0.41417       -0.02937
C          0.60527        0.09864       -0.02839
C          1.71485       -0.80708       -0.06617
N          1.46021       -2.14889       -0.24748
H          4.81025        0.69743        0.28883
H          3.85982        2.77781        0.40163
H          1.72476        3.39042        0.19480
H         -1.46925        4.06202       -0.48720
H          0.26117        4.14039       -0.48052
H         -4.06297       -2.79284       -0.01565
H         -2.58403       -3.71336        0.05396
H          2.22003       -2.81366       -0.14691
H          0.51286       -2.49700       -0.16650
