27
Coordinates from ORCA-job ./opt_b97-3c_parallel
N         -4.67479        2.25722        0.00009
C         -3.81400        1.50473        0.00019
C         -2.73176        0.54039        0.00041
C         -1.46089        1.11811        0.00045
C         -0.18759        0.53883        0.00071
C          0.86845        1.47382        0.00061
C          2.21023        1.09066        0.00055
C          3.24504        2.09458        0.00050
N          4.04965        2.90635        0.00053
C          2.50622       -0.26699        0.00056
N          3.71748       -0.86763        0.00038
C          3.53934       -1.98001        0.00035
C          2.16169       -2.41050        0.00049
C          1.48561       -1.16848        0.00077
C          0.12291       -0.83707        0.00077
C         -0.77971       -1.90202        0.00081
C         -2.16734       -1.89589        0.00074
C         -3.05492       -0.82519        0.00046
N         -4.37700       -1.19486        0.00041
H         -1.46911        2.20797        0.00036
H          0.64823        2.53995        0.00063
H          4.44482       -2.57663        0.00026
H          1.79094       -3.42931        0.00058
H         -0.35986       -2.90338        0.00102
H         -2.61641       -2.88764        0.00089
H         -5.10252       -0.48502        0.00028
H         -4.63645       -2.17491        0.00040
