32
Coordinates from ORCA-job ./opt_b97-3c_parallel
N          5.30248       -0.05011        0.13605
C          4.16305       -0.06271        0.09845
C          2.71848       -0.15321        0.05633
C          2.42122       -1.49318       -0.09474
N          2.86426       -2.51210       -0.21545
N          1.29398       -2.22886       -0.05950
C          0.00178       -1.71685        0.06126
N         -0.27968       -2.79208        0.10010
C         -0.46755       -0.34359        0.00167
C          0.33462        0.87930       -0.01060
C         -0.36093        2.17145       -0.13289
N         -0.09652        3.24404       -0.21052
C         -1.74741        2.23416       -0.18970
C         -2.46269        1.07547       -0.11312
N         -3.81924        0.94681       -0.11202
C         -3.96981       -0.43245       -0.01031
N         -5.03677       -0.71707        0.03944
N         -2.84539       -1.11901        0.02983
C         -1.91811       -0.20809       -0.01818
C          1.78830        0.96660        0.13146
N          2.35272        1.91201        0.27166
H          3.79607       -2.18806        0.06093
H          3.06235       -3.34075       -0.78321
H         -0.64233       -3.11303        1.00172
H         -0.31445       -3.61992       -0.50178
H         -0.44659        4.20040       -0.14355
H          0.76697        3.30276       -0.75046
H         -2.31514        3.16757       -0.27776
H         -5.57395       -1.54300        0.30843
H         -5.73435        0.01299       -0.11710
H          1.83479        2.74277        0.56234
H          3.32557        2.11121        0.51389
