31
Coordinates from ORCA-job ./opt_b97-3c_parallel
N         -5.83182       -0.45763        0.28886
C         -4.71861       -0.20957        0.21279
C         -3.31319        0.09226        0.13239
C         -2.96104        1.44132        0.48837
N         -2.07250        2.07052        0.29083
C         -1.10001        1.72739       -0.10338
N         -0.93830        2.69411       -1.06004
C         -0.34159        0.49652       -0.09744
C         -0.98023       -0.76167       -0.19639
C         -2.38406       -0.91262       -0.15678
C         -0.17274       -1.91358       -0.31700
N         -0.70121       -3.16950       -0.45624
C          1.21674       -1.81775       -0.27070
C          1.82599       -0.58043       -0.10556
C          3.25148       -0.43702       -0.02022
C          4.38503       -1.30527        0.04964
N          4.89093       -2.30496        0.27533
C          2.95819        0.96340        0.17270
N          4.00132        1.80647        0.43981
C          1.77955        1.79302        0.13575
C          1.05679        0.56453       -0.02817
H         -3.60938        2.30532        0.58373
H         -0.10671        2.69145       -1.63993
H         -1.48310        3.54754       -1.01071
H         -2.80790       -1.90147       -0.30884
H         -1.68300       -3.26421       -0.68915
H         -0.07999       -3.93183       -0.70473
H          1.82809       -2.71511       -0.34707
H          3.80053        2.74948        0.75389
H          4.89981        1.40365        0.68442
H          1.54057        2.57559        0.85028
