28
Coordinates from ORCA-job ./opt_b97-3c_parallel
N          5.11803        0.66596       -0.16618
C          4.02702        0.48235       -0.10836
C          2.72644        0.88370       -0.00239
C          1.30857        0.42310        0.02672
C          2.08846       -0.78025       -0.11849
N          1.49799       -2.02745       -0.21035
C          0.10861       -2.08112       -0.16039
C         -0.69167       -0.95328       -0.02610
C         -2.09296       -1.35640       -0.02222
N         -2.83126       -2.17562       -0.07850
N         -3.19020       -0.57754        0.04192
C         -2.98839        0.77191        0.16364
N         -4.04229        1.11429        0.16437
N         -2.15859        1.86096        0.27642
C         -0.78846        1.63272        0.25521
N         -0.65661        2.73096        0.37995
C         -0.14287        0.33268        0.08588
N          3.47092       -0.77877       -0.19184
H          5.62367        1.54917       -0.27455
H          5.85685       -0.04261       -0.15513
H          2.49352        1.94304        0.09778
H          0.07800       -3.17867       -0.26734
H         -3.59844       -2.48873       -0.67611
H         -2.70161       -2.92291        0.60468
H         -4.82945        0.46859        0.27129
H         -4.48840        2.01225       -0.03672
H         -0.59361        3.18947        1.29535
H         -0.69860        3.51181       -0.28414
