22
Coordinates from ORCA-job ./opt_b97-3c_parallel
N         -2.82969       -1.89016        0.06724
C         -2.23821       -0.96527        0.04880
N         -3.25610       -0.05845        0.07316
C         -2.68570        1.18275        0.03820
N         -1.53138        1.92552       -0.01629
C         -0.29936        1.27743       -0.04966
N          0.67138        2.27091       -0.11249
C          1.99471        1.87906       -0.14243
C          2.38009        0.50451       -0.07563
C          3.55254       -0.42926        0.00218
C          3.18609       -1.70067        0.03301
C          1.88148       -1.82147       -0.00926
C          1.40134       -0.55420       -0.05834
C          0.00967       -0.15934       -0.03138
N         -0.89231       -1.22243        0.01009
H         -2.44756       -2.77887       -0.25227
H         -3.83191       -2.03384        0.18485
H         -3.69748        1.61620        0.07285
H          2.91363        2.48280       -0.20007
H          4.60454       -0.15223        0.03024
H          3.87886       -2.53836        0.08685
H          1.31422       -2.74990        0.00293
