25
Coordinates from ORCA-job ./opt_b97-3c_parallel
N          4.09436        1.77205        0.15063
C          3.06885        1.27075        0.08333
C          1.76535        0.66962        0.02099
C          0.52113        1.42418        0.06852
N          0.54836        2.52819        0.17546
C         -0.71813        0.81497       -0.00162
C         -1.90733        1.42364       -0.24371
N         -3.23218        1.36744       -0.23096
C         -3.84935        0.22168        0.07714
N         -3.31615       -1.05551        0.21397
C         -1.97040       -1.40938        0.12429
C         -0.81152       -0.55411       -0.00392
C          0.39135       -1.33683       -0.07130
C          0.62701       -2.67760       -0.07809
C          1.94573       -2.82918       -0.07633
C          2.56635       -1.65545       -0.06969
C          1.59678       -0.69806       -0.06400
H         -0.10976        3.16222        0.62416
H          1.42115        3.03987        0.05768
H         -2.18021        2.44758       -0.53967
H         -4.94441        0.14598        0.15450
H         -2.37708       -2.42870        0.19904
H         -0.11360       -3.47363       -0.08863
H          2.45274       -3.79117       -0.08042
H          3.64258       -1.49712       -0.06364
