29
Coordinates from ORCA-job ./opt_b97-3c_parallel
N         -5.40080        1.49621        0.84296
C         -4.45266        0.94351        0.52705
C         -3.24522        0.26959        0.17337
C         -3.17495       -1.06380       -0.12013
C         -1.81083       -1.20126       -0.18457
C         -1.14093       -2.45574       -0.31566
N         -1.14150       -3.55160       -0.41832
N          0.19782       -2.43415       -0.21693
C          0.95843       -1.32296       -0.09885
N          2.29780       -1.61843        0.08268
C          3.19028       -0.60003        0.20859
N          4.14751       -1.10844        0.44239
N          3.48521        0.73138        0.17339
C          2.45000        1.59920       -0.12372
N          3.16660        2.45199       -0.17748
C          1.02115        1.31894       -0.25490
C          0.32175        2.50640       -0.64524
N         -0.17388        3.48064       -0.97555
C          0.32352        0.00841       -0.12678
C         -1.08014       -0.04267       -0.08481
C         -1.99387        0.94092        0.17779
H         -3.79411       -1.78690        0.40880
H         -2.16087       -3.51930       -0.38798
H         -0.90550       -4.46226       -0.81431
H          5.06982       -0.70088        0.61528
H          4.27916       -2.10386        0.64086
H          4.09540        2.84694       -0.35252
H          2.55019        3.26974       -0.23227
H         -1.87979        1.98219        0.45549
