30
Coordinates from ORCA-job ./opt_b97-3c_parallel
N         -5.37147       -1.83645       -0.00099
C         -4.51492       -1.07899       -0.00302
C         -3.41525       -0.12696       -0.00439
C         -3.88513        1.18060       -0.00608
C         -3.17098        2.35640       -0.00678
C         -1.80277        2.52433       -0.00479
C         -0.76889        1.58261       -0.00269
C          0.48511        2.22570       -0.00068
C          1.68052        1.52991        0.00272
C          2.93548        2.23797        0.00387
N          3.92325        2.81221        0.00384
C          1.59634        0.15347        0.00284
C          2.63465       -0.81588        0.00495
C          4.06537       -0.80145        0.01947
N          5.20396       -0.85818       -0.06452
C          1.82099       -2.00896       -0.00647
N          2.37069       -3.25970       -0.01069
N          0.71421       -1.83998       -0.01017
C          0.40657       -0.51947       -0.00358
C         -0.85746        0.15631       -0.00382
C         -2.07712       -0.59703       -0.00459
N         -1.99968       -1.97181       -0.00547
H         -4.96646        1.31755       -0.00710
H         -3.76196        3.26989       -0.00831
H         -1.51787        3.57503       -0.00482
H          0.54775        3.31311       -0.00167
H          1.78165       -4.07454       -0.14239
H          3.37345       -3.37072       -0.12249
H         -2.84608       -2.53025        0.01077
H         -1.10215       -2.43963        0.01052
