26
Coordinates from ORCA-job ./opt_b97-3c_parallel
N         -4.93321       -1.09003       -0.06745
C         -3.79955       -0.96426        0.01396
C         -2.55567       -0.26058        0.00259
C         -2.16227        1.13214       -0.01385
N         -3.09623        2.12821       -0.02340
N         -1.07712        1.43160       -0.01879
C         -0.39803        0.26092       -0.00763
C         -1.25236       -0.80330        0.00469
N         -0.91017       -2.10419        0.01498
C          0.42071       -2.33960        0.01366
C          1.40108       -1.33281        0.00364
C          2.73615       -1.77013        0.00540
C          3.87225       -0.95982       -0.00110
C          3.83704        0.47630       -0.00949
N          3.05017        1.25053       -0.01366
C          1.95689        1.09856       -0.01568
N          1.68184        2.43944       -0.04372
C          0.98608        0.02089       -0.00718
H         -2.80860        3.09043       -0.16072
H         -4.07834        1.89854       -0.13243
H          0.69657       -3.39305        0.02197
H          2.91551       -2.84306        0.01287
H          4.86258       -1.40866        0.00102
H          4.66912        1.17079       -0.00700
H          0.72127        2.76152        0.00546
H          2.42902        3.12240        0.01159
