24
Coordinates from ORCA-job ./opt_b97-3c_parallel
N          5.37493       -1.03469       -0.00221
C          4.26271       -0.77057       -0.00170
C          2.86754       -0.41253       -0.00126
C          2.49960        0.93284       -0.00123
C          1.20818        1.47535       -0.00170
C         -0.04966        0.82745       -0.00289
C         -1.22927        1.62284       -0.00377
C         -1.20952        3.06694       -0.00542
N         -1.18493        4.20975       -0.00161
C         -2.49844        1.03731       -0.00486
C         -2.58612       -0.34461       -0.00471
C         -3.74636       -1.16995       -0.00584
N         -2.87146       -1.89000       -0.00514
C         -1.90314       -2.47956       -0.00489
C         -1.48168       -1.11717       -0.00412
C         -0.18956       -0.58159       -0.00273
N          0.85563       -1.42267       -0.00229
C          1.94678       -1.50965       -0.00110
H          3.31311        1.65588       -0.00085
H          1.22335        2.56069       -0.00132
H         -3.40090        1.64533       -0.00583
H         -4.78837       -0.87338       -0.00611
H         -1.29938       -3.37861        0.00034
H          2.15853       -2.57233        0.01427
