25
Coordinates from ORCA-job ./opt_b97-3c_parallel
N         -1.92244       -3.23805       -0.08896
C         -1.77530       -2.18055       -0.49834
C         -1.58946       -0.83351       -0.05451
C         -2.58226        0.21961       -0.07510
N         -3.92249       -0.05382       -0.00932
C         -2.55055        1.65840       -0.20005
C         -1.12970        1.51854       -0.11857
N         -0.35510        2.62338       -0.11420
C          0.98173        2.43665       -0.04968
C          1.59189        1.17726        0.00526
C          2.99527        1.14494        0.02981
C          3.78840       -0.00409        0.02550
C          3.26600       -1.34260       -0.01848
N          2.26845       -1.81398        0.03071
C          1.29880       -1.29456        0.10772
C          0.76012        0.04015        0.01993
C         -0.62541        0.23218       -0.04724
H         -4.58460        0.67513       -0.25148
H         -4.22451       -1.01886       -0.09397
H         -3.13218        2.37395        0.37416
H          1.57449        3.35000       -0.05677
H          3.52404        2.09612        0.03510
H          4.87238        0.08000        0.03208
H          3.79504       -2.26515       -0.22840
H          0.89843       -2.15368        0.63535
