35
Coordinates from ORCA-job ./opt_b97-3c_parallel
N          5.42535        1.12644       -0.66742
C          4.32376        0.94449       -0.42088
C          2.91407        0.71054       -0.12284
C          2.07393        1.83316       -0.16485
N          2.63197        3.06634       -0.41569
C          0.70303        1.89234        0.06972
C         -0.26852        0.88315        0.12944
C          0.00426       -0.50783        0.08437
C          1.24115       -1.09409        0.45919
C          1.14968       -2.35734        1.18574
N          1.08124       -3.33720        1.77094
C          2.54749       -0.57508        0.31638
N          3.59118       -1.44318        0.58687
C         -1.06145       -1.36513       -0.31555
C         -0.81978       -2.65075       -0.95034
N         -0.63395       -3.65299       -1.46598
C         -2.37926       -0.91026       -0.31573
N         -3.44890       -1.64477       -0.75609
C         -2.69841        0.35109        0.26189
C         -3.72173        1.36083        0.34623
N         -5.02078        0.94452        0.42012
C         -3.53094        2.78438        0.29671
C         -2.11230        2.60627        0.22569
C         -1.62800        1.29897        0.18435
H          3.59534        3.11343       -0.73238
H          2.02406        3.85254       -0.61698
H          0.34806        2.91230        0.09441
H          3.39108       -2.42712        0.73479
H          4.53642       -1.17838        0.32916
H         -4.34106       -1.17738       -0.87897
H         -3.27711       -2.49915       -1.27626
H         -5.74669        1.62245        0.62375
H         -5.20873       -0.03440        0.60890
H         -4.03856        3.52350        0.90832
H         -1.52226        3.51541        0.22689
