31
Coordinates from ORCA-job ./opt_b97-3c_parallel
N          3.99201        3.06155        0.08722
C          3.25300        2.19056        0.03833
C          2.30800        1.10070       -0.04145
C          2.92185       -0.08117       -0.58929
N          2.74687       -1.15319       -0.37951
C          1.79401       -1.57135       -0.01081
N          2.30133       -2.45843        0.90035
C          0.39642       -1.19520       -0.06766
C         -0.56880       -2.20816       -0.26119
N         -0.20977       -3.51468       -0.46032
C         -1.92879       -1.90439       -0.26882
C         -2.32268       -0.58814       -0.09503
N         -3.58730       -0.11791       -0.13068
C         -3.50822        0.99721       -0.02275
N         -4.60295        1.80605       -0.09994
C         -2.18953        1.55733        0.13696
C         -1.38737        0.38863        0.09353
C          0.00401        0.15980        0.10182
C          0.93614        1.22150        0.25419
N          0.51691        2.44730        0.70253
H          3.92450       -0.20515       -0.98310
H          3.27488       -2.73364        0.83345
H          1.66572       -3.09854        1.36413
H          0.76403       -3.72373       -0.65409
H         -0.91293       -4.17176       -0.78028
H         -2.67399       -2.68129       -0.42663
H         -5.49153        1.40919       -0.38423
H         -4.48017        2.80792       -0.19302
H         -1.93787        2.61000        0.19557
H          1.22490        3.12640        0.96344
H         -0.37341        2.49856        1.18443
