30
Coordinates from ORCA-job ./opt_b97-3c_parallel
N          3.98766        2.68907       -0.04922
C          3.21251        1.84956       -0.01945
C          2.22313        0.78692        0.00111
C          2.78242       -0.54823       -0.02908
N          4.11979       -0.85201       -0.08779
N          2.49300       -1.60976        0.03453
C          1.41825       -1.85599        0.00187
C          0.07701       -1.33313       -0.02825
C         -0.98313       -2.26278       -0.09290
N         -0.76025       -3.60810       -0.18052
N         -2.28523       -1.91432       -0.08427
C         -2.50063       -0.59410       -0.00907
C         -3.74342        0.06724        0.02030
C         -3.30837        1.44098        0.09019
N         -4.20967        2.46223        0.14629
N         -2.19340        1.59371        0.09646
C         -1.56196        0.39473        0.03977
C         -0.18610        0.06189        0.02292
C          0.83679        1.05689        0.04280
N          0.49397        2.38720        0.08995
H          4.43503       -1.80214        0.07402
H          4.80540       -0.10679       -0.03341
H          1.76892       -2.77961        0.45206
H          0.16568       -3.92783       -0.44189
H         -1.54697       -4.20592       -0.40933
H         -4.75599       -0.32209        0.00515
H         -5.19540        2.26300        0.27407
H         -3.88530        3.40719        0.32035
H         -0.47567        2.65128       -0.05086
H          1.20975        3.08730       -0.07116
