27
Coordinates from ORCA-job ./opt_b97-3c_parallel
N          3.80329        1.85904       -0.30465
C          2.79865        1.04228        0.05243
C          1.76548        1.72412        0.62372
C          0.81606        1.42050       -0.30274
C          0.10137        0.27003       -0.15211
C          0.67190       -1.06714       -0.07484
C         -0.18752       -2.23598        0.02862
N         -1.52754       -2.09521        0.08310
C         -2.09029       -0.88185        0.03294
N         -3.41864       -0.53608        0.06715
C         -3.44890        0.85858       -0.03302
N         -4.33440        1.51980       -0.04200
N         -2.15861        1.38372       -0.13171
C         -1.33130        0.28927       -0.08674
C          2.10114       -1.34842       -0.10628
N          2.57764       -2.34564       -0.11695
C          3.08901       -0.28595       -0.06833
H          4.74709        1.49125       -0.42281
H          3.88869        2.78479        0.11358
H          1.86316        2.71057        1.06956
H          0.73789        2.00473       -1.21918
H          0.05023       -3.30969        0.09276
H         -5.32285        1.27133        0.02772
H         -4.31646        2.53739       -0.12783
H          3.31580       -2.38333        0.58690
H          2.93661       -2.85251       -0.92670
H          4.13847       -0.58706       -0.08698
