31
Coordinates from ORCA-job ./opt_b97-3c_parallel
N         -5.69340        0.91356       -0.53466
C         -4.67878        0.50186       -0.20431
C         -3.28625        0.20643       -0.04938
C         -2.94749       -1.18708        0.05613
N         -3.63542       -2.36925        0.02680
C         -1.51880       -1.14878        0.20253
C         -0.54200       -2.19975        0.26097
C          0.81924       -1.95694        0.19728
C          1.33119       -0.65496        0.17184
C          2.73357       -0.47828        0.12097
C          3.68113       -1.57197        0.15807
N          4.42449       -2.44142        0.17704
C          3.37982        0.81411        0.02856
N          4.55201        1.06007       -0.63865
N          3.14506        1.87236        0.23217
C          2.15386        2.22315        0.56766
C          0.80483        1.75392        0.40964
C          0.41185        0.41970        0.22885
C         -1.02644        0.20254        0.13883
C         -2.14416        1.07993       -0.08972
N         -2.30864        2.39665       -0.42066
H         -4.64908       -2.34356        0.06414
H         -3.16473       -3.22134        0.30945
H         -0.90412       -3.22403        0.30390
H          1.47373       -2.82445        0.18853
H          4.98675        1.97286       -0.56004
H          5.14898        0.27890       -0.88816
H          2.50300        3.24401        0.67484
H          0.09457        2.56768        0.51344
H         -1.49323        2.93693       -0.68581
H         -3.21646        2.70449       -0.75341
