26
Coordinates from ORCA-job ./opt_b97-3c_parallel
N         -4.21560       -0.96667       -0.31832
C         -3.01159       -0.34070       -0.18835
C         -1.77995       -1.09533       -0.19916
C         -0.84857       -0.04469       -0.07609
C         -1.62983        1.06811       -0.01663
C         -1.03151        2.31594        0.10720
C          0.36304        2.39325        0.14273
C          1.16675        1.24154        0.06371
C          2.55757        1.43981        0.05926
C          3.52524        0.44865       -0.11819
C          3.22375       -0.93659       -0.36040
N          2.32526       -1.57347       -0.26196
C          1.29307       -1.25941       -0.02591
N          0.97369       -2.33591        0.75702
C          0.54469       -0.02368       -0.01966
N         -2.94775        0.78075       -0.08636
H         -4.24863       -1.94620       -0.57625
H         -5.05249       -0.40996       -0.45078
H         -1.64316       -2.16592       -0.30974
H         -1.63800        3.21706        0.16221
H          0.82586        3.37454        0.21947
H          2.92659        2.45681        0.17211
H          4.58013        0.71013       -0.11995
H          3.90685       -1.74397       -0.59643
H          0.05845       -2.39230        1.18790
H          1.53970       -3.17596        0.71731
