24
Coordinates from ORCA-job ./opt_b97-3c_parallel
N          4.18314        1.39103        0.03546
C          3.05112        1.23190        0.02690
C          1.61685        1.05062        0.02274
C          0.83156        2.19841        0.02264
C         -0.54286        2.04117        0.00924
C         -1.52663        3.07312       -0.01289
N         -2.10054        2.10329       -0.01691
C         -2.53729        1.06495       -0.01270
C         -1.12753        0.81596        0.01851
C         -0.38412       -0.39183        0.03998
C         -1.01558       -1.67205        0.09271
C         -2.45382       -1.79565        0.17865
N         -3.58770       -1.92204        0.25058
C         -0.40249       -2.94170        0.10778
C          0.95262       -3.27054        0.04944
C          2.05539       -2.36605       -0.04895
N          1.83726       -1.29869       -0.01943
C          1.02589       -0.23276        0.01763
H          1.27821        3.19040        0.02310
H         -1.38694        4.14685        0.02524
H         -3.24512        0.86180       -0.80811
H         -1.06245       -3.80598        0.17322
H          1.26389       -4.31210        0.07306
H          2.93515       -2.43787       -0.67768
