31
Coordinates from ORCA-job ./opt_b97-3c_parallel
N         -5.80560        0.17988        0.67355
C         -4.77287        0.51495        0.31795
C         -3.38009        0.24755        0.13662
C         -2.64908        1.48292        0.10074
C         -1.28026        1.11688       -0.13635
C         -0.06027        1.84071       -0.31776
N         -0.26742        3.17144       -0.57794
C          1.20258        1.25767       -0.18387
C          2.32395        2.13345       -0.48138
N          3.19321        2.83106       -0.73834
C          1.33899       -0.15034       -0.03106
C          2.59780       -0.72373        0.30854
C          3.57375        0.03157        1.07104
N          4.34707        0.60370        1.68741
C          3.03752       -2.03910        0.13715
C          2.39573       -3.12157       -0.43433
C          1.07210       -3.20783       -0.80912
C          0.08580       -2.24866       -0.66124
C          0.16465       -0.90576       -0.27326
C         -1.15936       -0.30829       -0.14137
C         -2.45596       -0.85313        0.16751
N         -2.99847       -2.06016        0.50824
H         -2.96961        2.52230        0.11063
H         -1.19591        3.56038       -0.45630
H          0.52598        3.80381       -0.54781
H          4.05639       -2.25944        0.45622
H          2.98599       -4.02851       -0.54515
H          0.74756       -4.17256       -1.19331
H         -0.89789       -2.61947       -0.93503
H         -3.96727       -2.10413        0.80654
H         -2.38451       -2.83942        0.71821
