33
Coordinates from ORCA-job ./opt_b97-3c_parallel
N         -4.83538        2.42206        0.20240
C         -4.05266        1.59121        0.14374
C         -3.05293        0.55424        0.05510
C         -1.70527        0.91556        0.16649
C         -0.58538        0.05687        0.10474
C         -0.71459       -1.34743        0.05077
C          0.41355       -2.15561       -0.08695
C          1.68793       -1.60566       -0.14164
C          2.80487       -2.50799       -0.28258
N          3.67823       -3.23602       -0.39812
C          1.83919       -0.21690       -0.04075
C          3.12405        0.43642       -0.07869
C          4.50509        0.13611       -0.32649
N          5.64347        0.23683       -0.31458
C          2.41749        1.68873        0.08210
N          3.32535        2.71715        0.15089
C          1.01026        2.01219        0.19153
C          0.58462        3.31901        0.60444
N          0.02602        4.30645        0.46635
C          0.72108        0.60144        0.09012
C         -1.99056       -2.01159        0.17209
N         -2.18480       -3.12081        0.95041
N         -3.04794       -1.79964       -0.06537
C         -3.48996       -0.79651       -0.20596
N         -4.64708       -1.11488       -0.86398
H         -1.54239        1.97807        0.27748
H          0.29719       -3.23629       -0.14679
H          2.99308        3.67561        0.12157
H          4.30123        2.53489       -0.06098
H         -3.08785       -3.58261        0.95190
H         -1.38728       -3.63255        1.31052
H         -5.34040       -0.39216       -1.02510
H         -4.95787       -2.07948       -0.88523
