26
Coordinates from ORCA-job ./opt_b97-3c_parallel
N         -5.08317        1.97200       -0.00058
C         -4.15487        1.30478       -0.00148
C         -2.96685        0.47413       -0.00142
C         -1.77459        1.19898       -0.00154
C         -0.44436        0.77277       -0.00078
C          0.49462        1.82491       -0.00098
N          1.83531        1.66332       -0.00036
C          2.23661        0.38461        0.00029
C          3.56143       -0.09688        0.00121
C          4.86727        0.48035        0.00125
N          5.86179        1.04371        0.00194
C          3.24064       -1.50659        0.00185
N          2.16673       -1.84994        0.00169
C          1.43148       -0.71413        0.00081
C          0.03472       -0.55499        0.00024
C         -0.73521       -1.72139        0.00059
C         -2.11436       -1.87842        0.00002
C         -3.12384       -0.92037       -0.00119
N         -4.39242       -1.44528       -0.00227
H         -1.90678        2.28111       -0.00217
H          0.17552        2.86595       -0.00163
H          3.90605       -2.36143        0.00246
H         -0.19688       -2.66575        0.00150
H         -2.44290       -2.91645        0.00031
H         -5.19810       -0.82808        0.00027
H         -4.53203       -2.44948        0.00141
