27
Coordinates from ORCA-job ./opt_b97-3c_parallel
N          5.19927        0.99643        0.43490
C          4.15538        0.55857        0.29612
C          2.82343        0.04991        0.12656
C          2.75868       -1.31257        0.00077
C          1.40034       -1.41374       -0.05306
C          0.64095       -2.62162       -0.11292
C         -0.73769       -2.57321       -0.02396
C         -1.47307       -1.33220        0.05525
N         -2.83164       -1.49218        0.24807
C         -3.60793       -0.37960        0.25746
N         -3.79217        0.95985        0.12217
C         -2.64473        1.67151       -0.14760
N         -3.08446        2.67663       -0.27692
C         -1.28054        1.17941       -0.16947
C         -0.76344       -0.11938       -0.04404
C          0.63693       -0.20804       -0.03365
C          1.60872        0.83374        0.11814
N          1.68956        1.92925        0.26638
H          3.38481       -1.84086       -0.71567
H          1.14330       -3.58050       -0.22208
H         -1.29994       -3.50361       -0.07975
H         -4.49011       -0.99989        0.48130
H         -2.43688        3.29652       -0.76360
H         -4.01265        3.07406       -0.42033
H         -0.60946        2.00130       -0.36569
H          1.27336        2.18806        1.15908
H          2.65738        2.25043        0.30326
