31
Coordinates from ORCA-job ./opt_b97-3c_parallel
N         -5.45506        0.77721       -0.03269
C         -4.35002        0.48104       -0.00018
C         -2.94179        0.10938        0.02505
C         -2.65082       -1.26738       -0.01201
N         -3.69394       -2.16242       -0.06953
C         -1.40337       -1.89004        0.02089
C         -0.10836       -1.37520        0.05008
N          0.85238       -2.34661        0.07202
C          2.16333       -2.02284        0.07780
C          2.54868       -0.69404        0.03852
C          3.85378       -0.12637        0.01119
N          5.13626       -0.58875        0.05515
N          3.15725        0.76631       -0.03245
C          2.31575        1.52189       -0.09227
N          2.40939        2.86561       -0.31007
C          1.61796        0.27967        0.01141
C          0.24131       -0.00580        0.04008
C         -0.62128        1.09164        0.07350
C         -2.01263        1.16462        0.08870
N         -2.47972        2.45626        0.16705
H         -4.62931       -1.81507       -0.25512
H         -3.49672       -3.13814       -0.26312
H         -1.44627       -2.97992        0.01022
H          2.88146       -2.83991        0.09615
H          5.90161        0.06565        0.17500
H          5.31109       -1.56766        0.25272
H          1.58984        3.36686       -0.63457
H          3.31526        3.26553       -0.52714
H         -0.13397        2.06262        0.10748
H         -1.83462        3.18860        0.44262
H         -3.46563        2.60119        0.35940
