33
Coordinates from ORCA-job ./opt_b97-3c_parallel
N         -5.66640        2.14180        1.35174
C         -4.75281        1.54898        1.00651
C         -3.60784        0.80398        0.55501
C         -3.62419       -0.48427        0.06821
C         -2.29072       -0.94506       -0.25569
C         -1.59134       -2.18324       -0.35692
N         -2.36863       -3.29635       -0.53738
C         -0.20103       -2.21309       -0.25271
C          0.47329       -3.49623       -0.32251
N          1.00178       -4.50752       -0.39397
C          0.53779       -1.01802       -0.11494
N          1.85964       -1.13084        0.05797
C          2.82219       -0.66826        0.25212
N          3.49091       -1.42060        1.17826
C          3.05540        0.71794       -0.01809
C          4.47556        1.00103       -0.09833
N          5.59298        1.23640       -0.15422
C          2.06127        1.68256       -0.27202
N          2.54667        2.94531       -0.55143
C          0.64530        1.47960       -0.26248
C         -0.11218        2.64776       -0.68685
N         -0.68845        3.56946       -1.03936
C         -0.08620        0.25417       -0.09773
C         -1.50252        0.24005        0.03138
C         -2.31207        1.24730        0.55699
H         -4.56128       -1.03037       -0.00770
H         -3.34611       -3.17489       -0.77833
H         -1.91712       -4.16648       -0.80038
H          3.26145       -2.40432        1.26880
H          4.42582       -1.13789        1.45355
H          3.53691        3.05138       -0.74669
H          1.91285        3.63458       -0.94291
H         -2.00041        2.20596        0.96241
