29
Coordinates from ORCA-job ./opt_b97-3c_parallel
N          0.27267        3.94870        0.99103
C         -0.22956        3.41121        0.11715
C         -0.41722        1.98932        0.04436
C         -1.77905        1.73398        0.06063
C         -2.26102        0.44731       -0.01074
C         -3.59340        0.10675       -0.04217
N         -4.67790        0.32864       -0.03103
N         -3.66287       -1.24554       -0.22604
C         -2.34565       -1.64008       -0.28124
C         -1.31228       -0.64229       -0.09164
C          0.12208       -0.40014       -0.03079
C          1.01345       -1.56161        0.06320
C          0.45398       -2.87562        0.14736
N         -0.03281       -3.90725        0.21710
C          2.47257       -1.52177        0.09392
N          3.42067       -2.08423        0.15213
N          3.37307       -0.46733       -0.05119
C          2.94295        0.83344       -0.13498
N          3.74498        1.57249       -0.29730
N          1.77837        1.35124       -0.00450
C          0.54394        0.98445       -0.01172
H         -2.49870        2.54966        0.11621
H         -5.46204       -0.27169       -0.29354
H         -5.10774        1.18433        0.32327
H         -2.53932       -2.71048       -0.45860
H          4.41775       -2.25006        0.29241
H          2.96419       -2.97905        0.32895
H          3.83549        2.58612       -0.37136
H          4.67891        1.19795       -0.46672
