34
Coordinates from ORCA-job ./opt_b97-3c_parallel
N          1.38057        4.30674        0.90321
C          1.39012        3.18790        0.67059
C          1.38460        1.76477        0.37274
C          0.10386        1.24643        0.23680
C         -0.36070       -0.06417        0.08409
C          0.42308       -1.24823        0.07182
C         -0.31479       -2.46321        0.25463
N          0.22237       -3.66167        0.64234
N         -1.65498       -2.56516        0.21135
C         -2.35200       -1.44336        0.01068
C         -3.77613       -1.51608       -0.09637
C         -3.81464       -0.07355       -0.11699
N         -5.16229        0.17078       -0.14127
C         -2.72166        0.87454       -0.16013
C         -2.97054        2.03616       -0.95982
N         -2.96792        3.16604       -0.78496
C         -1.76782       -0.19930       -0.01181
C          1.82781       -1.29750       -0.17679
N          2.32994       -2.51278       -0.59972
C          2.78930       -0.25075       -0.15532
C          4.16661       -0.61674       -0.49054
N          5.23895       -0.89910       -0.77047
C          2.60645        1.10515        0.18902
N          3.73691        1.89323        0.31278
H         -0.65910        2.00867        0.35168
H         -0.40659       -4.37474        0.99468
H          1.17839       -3.66667        0.98250
H         -4.40805       -2.18110        0.48560
H         -5.79349       -0.59477       -0.35061
H         -5.47550        1.11233       -0.35457
H          1.67862       -3.25192       -0.84477
H          3.27061       -2.55950       -0.97743
H          4.63113        1.52529        0.00458
H          3.63135        2.90036        0.37917
