26
Coordinates from ORCA-job ./opt_b97-3c_parallel
N          0.66522        3.15407        1.05274
C          0.90855        2.08875        0.71821
C          1.16261        0.75821        0.25506
C          2.49567        0.60889       -0.13773
N          3.47214        1.12363       -0.27469
N          3.22415       -0.46282       -0.52169
C          2.67123       -1.69809       -0.23143
N          1.67658       -2.06881        0.50368
C          0.45767       -1.64901        0.33472
C         -0.54321       -2.69971        0.33361
C         -1.92270       -2.29714        0.22231
C         -2.19159       -0.95519        0.00025
C         -3.45389       -0.30206       -0.15000
N         -3.24349        1.01714       -0.33870
C         -1.91395        1.24707       -0.29531
N         -2.09470        2.31077       -0.55328
C         -1.21158        0.00696       -0.06257
C          0.15165       -0.28968        0.14377
H          4.47085        1.05665       -0.48605
H          3.37385        2.01515        0.21408
H          3.30642       -2.52893       -0.58032
H         -0.27511       -3.74980        0.42421
H         -2.73433       -3.01906        0.29727
H         -4.46425       -0.74014       -0.11919
H         -2.81967        2.75271       -1.12411
H         -1.57204        3.08839       -0.14561
