28
Coordinates from ORCA-job ./opt_b97-3c_parallel
N         -2.07342       -3.51380       -0.15280
C         -2.15132       -2.38279       -0.29916
C         -1.84864       -1.00287       -0.06433
C         -2.99455       -0.11683       -0.04895
N         -4.33238       -0.40844        0.01719
C         -3.08368        1.32132       -0.14361
C         -1.65528        1.35952       -0.10834
N         -1.04050        2.55355       -0.11006
C          0.30444        2.53616       -0.07494
C          1.08713        1.37192       -0.04315
C          2.46242        1.62097       -0.02430
C          3.53482        0.73951       -0.01304
C          3.52049       -0.64754       -0.00591
N          4.73640       -1.27161       -0.01016
C          2.40278       -1.47123        0.00767
C          1.05557       -1.13294        0.00002
C          0.43005        0.12193       -0.03515
C         -0.98387        0.15063       -0.06627
H         -4.62156       -1.37617       -0.08057
H         -5.00600        0.31495       -0.20930
H         -3.72747        1.97786        0.43591
H          0.76223        3.52468       -0.07744
H          2.76229        2.66697       -0.02767
H          4.51587        1.21106       -0.01311
H          5.57456       -0.72192        0.14359
H          4.77807       -2.27190        0.15025
H          2.60034       -2.54160        0.02258
H          0.42269       -2.01045        0.01964
