30
Coordinates from ORCA-job ./opt_b97-3c_parallel
N          4.64428       -0.35234        0.25822
C          3.33088        0.00761        0.19908
C          2.28898       -0.99258        0.18275
C          1.15156       -0.16200        0.11922
C          1.67354        1.08813        0.11099
C          0.81602        2.17316        0.05683
C         -0.56806        1.96428        0.01208
N         -1.31487        3.11144        0.05928
C         -1.12577        0.64707       -0.00299
C         -2.53085        0.40951       -0.07964
N         -3.42239        1.38620       -0.43476
C         -3.13953       -0.82672        0.16937
C         -2.45736       -2.00069        0.64421
N         -1.46488       -2.41761        0.39381
C         -0.62350       -1.82303       -0.00185
N         -0.13593       -2.72438       -0.90803
C         -0.21117       -0.43976        0.05122
N          3.02378        1.09172        0.16355
H          4.89919       -1.31936        0.42360
H          5.35334        0.36086        0.38750
H          2.38719       -2.07259        0.22185
H          1.22581        3.18131        0.07041
H         -0.84130        3.97867        0.28606
H         -2.28664        3.02679        0.33796
H         -3.05395        2.22013       -0.88025
H         -4.36762        1.10881       -0.67405
H         -4.21679       -0.95508        0.08510
H         -2.87549       -2.86919        1.13896
H         -0.42473       -3.69480       -0.85370
H          0.70138       -2.50417       -1.43515
