26
Coordinates from ORCA-job ./opt_b97-3c_parallel
N         -1.88639        3.14553        0.11358
C         -1.66541        2.02375        0.09302
C         -1.40317        0.60049        0.05149
C         -2.63499       -0.16267        0.04138
N         -3.82744        0.25627       -0.49408
N         -2.99438       -1.18844        0.22882
C         -2.31784       -2.05744        0.29671
C         -0.92509       -2.34429        0.09860
C          0.10102       -1.39721        0.01178
N          1.34910       -1.93778       -0.06586
C          2.43144       -1.13621       -0.10584
N          3.65348       -1.73750       -0.18452
C          2.28609        0.24363       -0.05768
C          3.28857        1.25732       -0.07341
N          2.30788        1.81680       -0.01874
C          1.25377        2.21889        0.03110
C          1.05523        0.80290        0.00556
C         -0.11563        0.01386        0.02791
H         -4.66092       -0.30533       -0.35809
H         -3.95448        1.23896       -0.71038
H         -3.10351       -2.73046        0.62023
H         -0.70618       -3.41006        0.08767
H          4.45770       -1.16942       -0.42456
H          3.68644       -2.72651       -0.40464
H          4.30158        1.21090        0.30728
H          1.04699        2.91918        0.83230
