29
Coordinates from ORCA-job ./opt_b97-3c_parallel
N          5.13358        1.73862        0.03223
C          4.13288        1.18593        0.03143
C          2.88058        0.47393        0.03019
C          1.77204        1.39882        0.01608
N          0.69567        1.14286       -0.00673
C         -0.17161        0.10162       -0.01714
C          0.33389       -1.22057        0.00611
C         -0.53270       -2.31554        0.00416
C         -1.91015       -2.15040       -0.02512
C         -2.46035       -0.82852       -0.05987
C         -3.62518        0.01722       -0.07631
N         -4.78480       -0.70138       -0.00393
C         -3.67124        1.45336       -0.15689
C         -2.24218        1.52241       -0.09681
N         -1.66626        2.76320       -0.09806
C         -1.56985        0.29972       -0.05529
N          1.66179       -1.47570        0.02697
C          2.63234       -0.94873        0.02919
N          3.61346       -1.89305       -0.06337
H          1.78921        2.48200        0.00859
H         -0.12394       -3.32334        0.02416
H         -2.56429       -3.01839       -0.02560
H         -4.74446       -1.70765       -0.12271
H         -5.66376       -0.23184       -0.19210
H         -4.35623        2.10451        0.37663
H         -2.25240        3.57527        0.05999
H         -0.67739        2.83521        0.11513
H          4.58806       -1.62053        0.00382
H          3.37946       -2.87572        0.02020
