30
Coordinates from ORCA-job ./opt_b97-3c_parallel
N          5.72312        0.00087       -0.01288
C          4.58663        0.12986       -0.01287
C          3.14879        0.31022       -0.01231
C          2.74641        1.64140        0.02469
C          1.46986        2.18534        0.01925
C          0.22337        1.55898        0.00366
C         -0.86582        2.45456       -0.00078
C         -2.18559        2.01207       -0.00437
C         -2.40140        0.64475        0.01249
C         -3.64021       -0.05846        0.02318
N         -4.96990        0.24087       -0.02199
N         -2.85957       -0.87634        0.05162
C         -1.94541       -1.54098        0.08707
N         -2.01039       -2.89776        0.21462
C         -1.37295       -0.23215        0.02368
C         -0.02308        0.16734        0.00167
C          0.92698       -0.86087       -0.03074
C          2.32098       -0.82195       -0.05208
N          2.91020       -2.06141       -0.11497
H          3.54413        2.38260        0.05247
H          1.46385        3.27337        0.03642
H         -0.69340        3.52881       -0.00276
H         -3.01612        2.71334       -0.01082
H         -5.26209        1.19338       -0.20824
H         -5.64414       -0.50180       -0.16870
H         -1.17964       -3.40664        0.49490
H         -2.90867       -3.33327        0.39004
H          0.52314       -1.86959       -0.05532
H          2.33606       -2.85995       -0.36171
H          3.90423       -2.11432       -0.31209
