29
Coordinates from ORCA-job ./opt_b97-3c_parallel
N         -4.92010        2.17786       -0.08750
C         -3.82042        1.89273        0.03933
C         -2.78419        0.91015        0.04335
C         -1.36262        1.09817        0.04398
C         -0.55698       -0.03799        0.01466
C         -1.35112       -1.23197       -0.01310
C         -0.69251       -2.49292       -0.00818
C          0.68987       -2.52719       -0.00466
C          1.47931       -1.36532        0.00190
C          2.84765       -1.66177        0.00047
C          3.95341       -0.82739        0.00869
C          3.99209        0.55311        0.01989
C          2.92232        1.43458        0.02499
N          3.26055        2.76042        0.03365
C          1.55740        1.14243        0.02262
C          0.86484       -0.08511        0.01319
C         -2.59875       -0.51590       -0.00481
N         -3.67345       -1.36107       -0.03633
H         -1.01470        2.12444        0.07690
H         -1.26360       -3.41760       -0.01038
H          1.15661       -3.51002       -0.00678
H          3.11923       -2.71547       -0.00771
H          4.92043       -1.32498        0.00590
H          4.98970        0.98908        0.02468
H          4.22612        3.01850       -0.13889
H          2.54163        3.45230       -0.14646
H          0.96214        2.04396        0.02712
H         -4.59715       -0.97032       -0.19065
H         -3.52337       -2.33984       -0.25408
