33
Coordinates from ORCA-job ./opt_b97-3c_parallel
N         -5.45308       -1.01989       -0.81717
C         -4.60541       -0.41986       -0.33739
C         -3.20597       -0.20606       -0.13474
C         -3.00063        1.14379        0.30909
C         -1.58487        1.30310        0.48862
C         -0.77398        2.48835        0.50156
N         -1.37098        3.69011        0.75911
C          0.55928        2.44635        0.12811
C          1.22287        1.23612       -0.03983
N          2.52265        1.30824       -0.34106
C          3.41965        0.72906       -0.54880
N          4.44296        1.53511       -0.95178
C          3.56173       -0.67267       -0.31793
C          2.57490       -1.53329        0.16658
N          3.02676       -2.81548        0.36980
C          1.21114       -1.21733        0.41520
C          0.43284       -2.28179        1.02660
N         -0.16008       -3.12191        1.52725
C          0.54798        0.02608        0.20231
C         -0.91811        0.05151        0.24028
C         -1.92604       -0.84909       -0.25667
N         -2.01383       -2.02216       -0.95265
H         -3.62861        2.02820        0.22657
H         -0.85711        4.54715        0.58560
H         -2.38115        3.73633        0.83292
H          1.11487        3.37757        0.02984
H          5.38215        1.16133       -1.02762
H          4.32938        2.54203       -0.92106
H          4.56974       -1.03597       -0.50992
H          2.40022       -3.52295        0.74001
H          3.99789       -3.04961        0.19652
H         -1.21501       -2.64697       -0.92652
H         -2.92992       -2.44635       -1.05236
