27
Coordinates from ORCA-job ./opt_b97-3c_parallel
N         -3.01398        2.49661       -0.54878
C         -2.70515        1.40771       -0.39130
C         -2.33844        0.02725       -0.19720
C         -3.24528       -1.02099       -0.18620
C         -2.62534       -2.32487       -0.03056
C         -1.24944       -1.88299        0.01222
N         -0.22583       -2.74817        0.12417
C          1.01783       -2.21312        0.14408
C          1.29907       -0.83275        0.06327
C          2.64756       -0.40220        0.05204
N          3.66106       -1.29333        0.28888
C          3.05585        0.90497       -0.23589
C          2.16841        1.96727       -0.63037
N          1.12049        2.18517       -0.35036
C          0.37115        1.48331        0.05676
N         -0.04455        2.21990        1.13320
C          0.19777        0.05190       -0.01114
C         -1.07978       -0.51886       -0.06531
H         -4.30960       -0.82856       -0.29961
H         -2.98158       -3.26374       -0.44175
H          1.81054       -2.95549        0.20207
H          3.43241       -2.18430        0.71498
H          4.59698       -0.93042        0.43243
H          4.10871        1.17857       -0.23748
H          2.39818        2.86653       -1.18949
H          0.06693        3.22731        1.10827
H         -0.78061        1.85065        1.72413
