31
Coordinates from ORCA-job ./opt_b97-3c_parallel
N         -5.52182       -0.66035       -0.39150
C         -4.44216       -0.32286       -0.22741
C         -3.06700        0.10064       -0.04342
C         -2.14755       -0.95119       -0.02333
C         -0.74170       -0.97318        0.06778
C         -0.13016       -2.25941        0.09251
N         -0.84188       -3.42919        0.16541
C          1.25458       -2.41405        0.06549
C          2.06052       -1.29434        0.02500
N          3.40722       -1.28691       -0.03522
C          3.62918       -0.18877       -0.05618
N          4.96610        0.07778       -0.16822
C          2.60111        0.83334        0.00373
C          3.01663        2.20416       -0.05989
N          3.08448        3.33495       -0.21286
C          1.49005       -0.05608        0.05851
C          0.10025        0.16773        0.10086
C         -0.30530        1.50423        0.18913
C         -1.56829        2.06971        0.22355
C         -2.81273        1.46928        0.10507
N         -3.86581        2.34941        0.13752
H         -2.63559       -1.91623       -0.12402
H         -1.80981       -3.38396        0.46351
H         -0.33491       -4.28442        0.36649
H          1.70488       -3.40492        0.06851
H          5.61014       -0.68043       -0.36382
H          5.27551        1.02549       -0.35448
H          0.47140        2.25314        0.26788
H         -1.56910        3.15355        0.33230
H         -3.68354        3.34637        0.10750
H         -4.79549        2.01721       -0.09815
