23
Coordinates from ORCA-job ./opt_b97-3c_parallel
N         -2.53849       -2.37043        0.05001
C         -1.57530       -1.40412        0.02087
N         -0.28846       -1.81676        0.01663
C          0.72030       -0.89912        0.00464
C          2.01576       -1.42486        0.00216
C          3.22796       -0.65103       -0.00602
N          3.53626        0.40768       -0.00191
C          2.84589        1.26750       -0.00428
C          1.42707        1.50134       -0.00863
C          0.45059        0.49675       -0.00348
C         -0.89803        0.87426       -0.00449
C         -1.50586        2.16605       -0.01097
N         -2.38815        1.45490       -0.00161
C         -3.14622        0.61314        0.00970
C         -1.88321       -0.04723        0.00691
H         -3.51455       -2.11529       -0.03850
H         -2.26788       -3.34447       -0.02769
H          2.18032       -2.50007        0.00726
H          4.25082       -1.01023       -0.00204
H          3.64738        1.99755        0.00229
H          1.16899        2.55635       -0.01214
H         -1.04408        3.14571        0.00420
H         -4.13748        0.17739        0.00288
