27
Coordinates from ORCA-job ./opt_b97-3c_parallel
N         -2.64920       -3.21384        0.64324
C         -2.76622       -2.21252        0.10561
C         -2.24138       -0.88776       -0.03777
C         -3.39572       -0.04794        0.20178
N         -3.31023        1.07100        0.26128
C         -1.98895        1.28574        0.10522
C         -1.34409        2.51261        0.17279
C          0.04342        2.54359        0.06147
C          0.77908        1.36787       -0.13805
C          2.20929        1.51073       -0.24610
N          3.08594        0.89577        0.02715
C          3.10635       -0.20722        0.05262
N          4.16087       -0.51303        0.86405
C          2.22464       -1.21640       -0.47179
C          0.83510       -1.08109       -0.55596
N          0.18031       -2.19683       -0.99798
C          0.13105        0.11524       -0.26732
C         -1.26935        0.14276       -0.11696
H         -4.43055       -0.30713        0.39747
H         -1.90753        3.42828        0.33591
H          0.55775        3.49930        0.13230
H          2.80548        2.41546       -0.21676
H          4.42111       -1.48057        1.02068
H          4.78851        0.21632        1.18307
H          2.71097       -2.15413       -0.73415
H         -0.77346       -2.09663       -1.32627
H          0.73117       -2.95250       -1.39053
