27
Coordinates from ORCA-job ./opt_b97-3c_parallel
N          3.49375        2.90643       -0.07213
C          3.02211        1.86559       -0.04181
C          2.43679        0.54208       -0.01750
C          3.41119       -0.47273       -0.04650
C          3.23376       -1.85558       -0.03741
C          1.98469       -2.54936        0.00896
N          1.02634       -2.02749        0.00509
C          0.37048       -0.86126        0.00761
C          1.02112        0.39560        0.01289
C          0.20538        1.55571        0.04565
C         -1.18879        1.48818        0.05126
N         -1.94036        2.62892        0.10094
C         -1.77774        0.23113        0.01197
C         -3.15632       -0.13178       -0.03002
N         -4.37603        0.46047       -0.17428
N         -2.61639       -1.12576        0.00267
C         -1.90912       -2.01081       -0.01245
C         -1.02782       -0.88829        0.00226
H          4.45189       -0.15309       -0.07990
H          4.09725       -2.51609       -0.06258
H          1.80378       -3.60729        0.15715
H          0.63740        2.55192        0.06825
H         -1.47640        3.49994        0.33352
H         -2.91996        2.53888        0.34776
H         -4.41243        1.43714       -0.44419
H         -5.17990       -0.11511       -0.39704
H         -1.66644       -3.06299        0.07041
