24
Coordinates from ORCA-job ./opt_b97-3c_parallel
N         -1.40455        3.93183       -0.00056
C         -0.86483        2.92413        0.00052
C         -0.16667        1.65906        0.00108
C          1.22952        1.74377        0.00053
C          1.95705        0.56938        0.00014
C          3.32932        0.38192       -0.00072
C          3.54997       -0.99100       -0.00115
C          2.31615       -1.63532       -0.00054
C          1.33321       -0.65368        0.00022
C         -0.05575       -0.78012        0.00081
N         -0.58746       -2.01032        0.00054
C         -1.49862       -2.61393        0.00053
C         -2.82025       -2.06619        0.00105
C         -3.13271       -0.70783        0.00219
C         -2.25165        0.38198        0.00239
C         -0.83596        0.40172        0.00126
H          1.73702        2.70649        0.00031
H          4.08972        1.15902       -0.00114
H          4.52178       -1.47812       -0.00193
H          2.15478       -2.71057       -0.00075
H         -1.19764       -3.65451        0.00063
H         -3.61509       -2.80782        0.00065
H         -4.19256       -0.46454        0.00286
H         -2.77579        1.33231        0.00340
