30
Coordinates from ORCA-job ./opt_b97-3c_parallel
N          3.85434       -2.56741       -0.24118
C          3.02221       -1.89988        0.16856
C          2.26255       -0.68098        0.11789
C          3.28217        0.28205        0.06772
N          4.33780        0.63733        0.04316
N          3.15657        1.66777        0.01377
C          1.89898        2.22638        0.01097
N          0.65850        1.88512        0.04165
C          0.12288        0.71090        0.05044
C          0.80656       -0.50638        0.10005
C          0.04880       -1.75807        0.13412
C         -1.34689       -1.79184        0.05821
N         -1.85363       -2.77245        0.12043
C         -2.02820       -0.53239       -0.03740
C         -3.37608       -0.31193       -0.14818
N         -4.35816       -0.82055       -0.21818
N         -3.51876        1.08193       -0.18022
C         -2.26101        1.69813       -0.09601
N         -2.49405        2.78123       -0.13048
C         -1.32448        0.61763       -0.01616
H          5.16558        1.23751        0.04709
H          4.70974       -0.31050       -0.05932
H          2.27380        3.26257       -0.02896
H          0.57852       -2.70524        0.23618
H         -1.29840       -3.48972       -0.34967
H         -2.33090       -3.25902        0.88115
H         -4.15229       -1.81046       -0.37104
H         -5.37779       -0.75645       -0.22049
H         -3.31854        3.38601       -0.15310
H         -1.70544        3.42172       -0.03240
