27
Coordinates from ORCA-job ./opt_b97-3c_parallel
N          5.52266        0.53457       -0.11695
C          4.40148        0.32433       -0.04773
C          2.98053        0.06963        0.02718
C          2.71922       -1.30153        0.37100
N          1.86894       -2.00121        0.28439
C          0.83723       -1.69014        0.04910
N          0.50605       -2.87933       -0.54458
C          0.02556       -0.49201        0.00595
C          0.59692        0.80362       -0.09394
C         -0.29395        1.90109       -0.14780
N         -1.64219        1.80363       -0.10774
C         -2.11363        0.55141       -0.01039
C         -3.46153        0.14241        0.03384
C         -4.76838        0.71550        0.00304
N         -5.80021        1.17162        0.18845
C         -3.21325       -1.27984        0.11548
N         -2.16050       -1.68328        0.13122
C         -1.37204       -0.58764        0.04819
C          1.99212        1.05505       -0.14916
N          2.43221        2.33649       -0.38227
H          3.39573       -2.03530        0.79534
H         -0.46676       -3.04621       -0.77964
H          1.08397       -3.69442       -0.37163
H          0.05869        2.92803       -0.20876
H         -3.92106       -2.09885        0.16176
H          3.41550        2.47662       -0.58966
H          1.77493        3.02062       -0.73899
