30
Coordinates from ORCA-job ./opt_b97-3c_parallel
N         -2.55217       -3.78096       -0.04570
C         -2.32955       -2.65909       -0.03910
C         -2.06943       -1.23275       -0.02925
C         -3.26543       -0.51336       -0.03122
C         -3.49110        0.85062       -0.02661
C         -2.56204        1.87474       -0.00472
N         -3.07011        3.14439       -0.00859
C         -1.17837        1.76026        0.02293
C         -0.35112        0.62720        0.01912
C         -0.73652       -0.74376       -0.01492
C          0.30551       -1.71329       -0.03335
C          1.65632       -1.38086       -0.00872
N          2.61665       -2.35349       -0.03527
C          1.98651       -0.03857        0.04284
C          3.27866        0.56492        0.09631
N          4.62458        0.35875        0.16861
N          2.56625        1.44040        0.09386
C          1.70759        2.17347        0.10484
C          1.02924        0.91298        0.05188
H         -4.18405       -1.09956       -0.04233
H         -4.53920        1.14457       -0.03995
H         -4.06431        3.27684        0.14132
H         -2.44853        3.92460        0.17405
H         -0.67734        2.72413        0.04611
H          0.09954       -2.77859       -0.06795
H          2.34082       -3.30119       -0.26798
H          3.57296       -2.07635       -0.22829
H          4.97110       -0.57479        0.35792
H          5.23668        1.14029        0.37191
H          1.58910        3.03901       -0.53573
