31
Coordinates from ORCA-job ./opt_b97-3c_parallel
N         -4.17779       -3.49056       -0.43533
C         -3.63874       -2.49455       -0.28270
C         -2.95649       -1.23473       -0.11101
C         -3.76657       -0.13049        0.06883
C         -3.38350        1.18058        0.26330
C         -2.11987        1.76823        0.22072
N         -2.21923        3.10168        0.52866
C         -0.84963        1.16035       -0.00598
C          0.30525        1.98431       -0.18460
N          0.28836        3.31720       -0.49319
N          1.57154        1.53874       -0.20809
C          1.77185        0.22323       -0.08897
C          3.11485       -0.28151       -0.08681
C          4.37552        0.39017       -0.06261
N          5.51491        0.37833       -0.17139
C          2.56249       -1.61075        0.02541
N          3.48263       -2.59840        0.24545
C          1.19040       -2.04873       -0.00199
C          0.73641       -0.68272       -0.04454
C         -0.61074       -0.24586       -0.03939
C         -1.56674       -1.27620       -0.09916
H         -4.84159       -0.30746        0.08982
H         -4.22276        1.85006        0.45234
H         -1.36822        3.59787        0.77325
H         -3.08859        3.44397        0.92262
H          1.15794        3.73563       -0.80406
H         -0.57050        3.69172       -0.88286
H          3.19970       -3.56906        0.17083
H          4.46938       -2.37703        0.14868
H          0.78737       -2.84604        0.61522
H         -1.19074       -2.28790       -0.20131
