32
Coordinates from ORCA-job ./opt_b97-3c_parallel
N         -4.45227        2.63623        0.98241
C         -3.43550        2.39135        0.52010
C         -2.63196        1.22304        0.34335
C         -1.19879        1.16461        0.34047
C         -0.57343        0.00597       -0.11997
C         -1.52156       -1.02787       -0.41740
C         -1.06507       -2.37598       -0.36206
N         -1.93714       -3.41241       -0.53350
C          0.27748       -2.61977       -0.13331
C          1.22796       -1.59162       -0.01258
C          2.50472       -2.10385        0.23667
C          3.68998       -1.44927        0.50742
C          3.95249       -0.09789        0.44867
C          3.11439        0.92824        0.03405
N          3.78290        2.12671       -0.06964
C          1.73096        0.87137       -0.25771
C          1.22512        2.06406       -0.92498
N          0.84344        3.00088       -1.46020
C          0.83434       -0.22943       -0.11755
C         -2.59566       -0.18053        0.02970
N         -3.79968       -0.80387        0.20705
H         -0.66131        1.98972        0.80041
H         -2.86244       -3.20250       -0.89184
H         -1.55929       -4.33527       -0.71673
H          0.58786       -3.66127       -0.06893
H          2.60002       -3.18624        0.29989
H          4.53343       -2.08375        0.77043
H          4.98215        0.17114        0.68191
H          3.32374        2.90099       -0.53791
H          4.79705        2.12086       -0.04885
H         -3.81625       -1.81682        0.25395
H         -4.54885       -0.29260        0.66195
