26
Coordinates from ORCA-job ./opt_b97-3c_parallel
N          3.90036       -0.93585        0.07054
C          2.64810       -0.38507       -0.01015
N          2.95012        0.70413        0.00101
C          1.61798        0.81970       -0.00769
C          0.86207        1.97717       -0.01606
C         -0.52628        1.87030       -0.01615
N         -1.20754        3.05806       -0.07879
C         -1.17556        0.60423        0.01464
C         -2.57892        0.62548        0.11762
C         -3.50531       -0.41005        0.14700
C         -3.29580       -1.77164        0.03254
C         -2.08729       -2.43091       -0.09374
C         -0.80662       -1.89855       -0.09965
C         -0.36930       -0.56566       -0.03461
C          1.02923       -0.39630       -0.02964
N          2.00719       -1.31563       -0.03458
H          4.70457       -0.34055        0.23523
H          4.00511       -1.93489        0.20450
H          1.35175        2.94873       -0.02760
H         -0.67527        3.90120       -0.26728
H         -2.16636        3.03616       -0.40802
H         -3.06662        1.58997        0.21377
H         -4.54300       -0.10581        0.25898
H         -4.18509       -2.39735        0.04894
H         -2.14892       -3.51367       -0.17902
H         -0.04086       -2.66647       -0.17696
