30
Coordinates from ORCA-job ./opt_b97-3c_parallel
N         -3.95885       -3.60238       -0.20317
C         -3.46149       -2.57651       -0.12294
C         -2.83861       -1.27738       -0.03789
C         -3.69673       -0.19688        0.03242
C         -3.37314        1.14033        0.15595
C         -2.13497        1.78319        0.14848
N         -2.31079        3.12104        0.39319
C         -0.83066        1.22576       -0.00456
C          0.30751        2.09167       -0.15430
N          0.26081        3.43368       -0.41447
N          1.59345        1.68785       -0.16641
C          1.78414        0.37497       -0.04399
C          3.01667       -0.31437       -0.03363
C          4.33835        0.22984       -0.06687
N          5.47775        0.30905       -0.01587
C          2.46537       -1.64925        0.04209
N          3.26942       -2.75071        0.10249
N          1.35160       -1.80174        0.05994
C          0.80616       -0.56224        0.01037
C         -0.54855       -0.17526        0.00472
C         -1.45104       -1.25206       -0.00455
H         -4.76319       -0.41721        0.02845
H         -4.24845        1.78045        0.26547
H         -1.50331        3.65607        0.69531
H         -3.21931        3.43294        0.71905
H         -0.61669        3.81783       -0.74860
H          1.11473        3.88353       -0.72526
H          4.27694       -2.65527        0.03361
H          2.86464       -3.68021        0.09146
H         -1.01585       -2.24865       -0.02483
