30
Coordinates from ORCA-job ./opt_b97-3c_parallel
N          1.49852       -4.27855        0.13727
C          1.00495       -3.24778        0.10640
C          0.38751       -1.93620        0.08113
C         -1.00443       -1.78252        0.02842
N         -1.75987       -2.93343        0.01857
C         -1.60686       -0.49392        0.00670
C         -3.01119       -0.46888       -0.13548
C         -3.91324        0.58533       -0.17369
C         -3.67973        1.93639       -0.01680
C         -2.46269        2.55190        0.19133
C         -1.19746        1.98561        0.23148
C         -0.76936        0.65025        0.10959
C          0.63266        0.45657        0.10919
C          1.61710        1.51253        0.08119
C          1.99090        2.72703       -0.58219
N          2.10157        3.84377       -0.36826
C          2.71481        0.57176        0.06173
N          4.07739        0.71113        0.05003
C          2.62561       -0.86583        0.09574
C          1.19149       -0.80445        0.09285
H         -1.29709       -3.81394        0.21913
H         -2.74845       -2.86537        0.23118
H         -3.53216       -1.41064       -0.26685
H         -4.95373        0.30748       -0.32687
H         -4.55130        2.58611       -0.05146
H         -2.49931        3.63169        0.31823
H         -0.44622        2.74485        0.40637
H          4.46069        1.62710       -0.15964
H          4.64819       -0.09808       -0.16825
H          3.21835       -1.56932       -0.48407
