24
Coordinates from ORCA-job ./opt_b97-3c_parallel
N          2.75105        1.69250        0.57322
C          2.07417        0.70249       -0.08558
N          2.92932        0.02059       -0.23590
C          2.91136       -1.08465       -0.24049
C          1.93099       -2.09699        0.04757
C          0.56060       -1.84859        0.14833
C         -0.05535       -0.59155        0.02135
C          0.63283        0.63220       -0.13402
C         -0.08580        1.82663       -0.31250
C         -1.48196        1.83808       -0.31256
C         -2.15658        0.63908       -0.12254
N         -3.49059        0.43625       -0.08149
C         -3.63884       -0.66987        0.08575
C         -2.45523       -1.49267        0.18572
C         -1.44963       -0.51431        0.03889
H          2.25772        2.51605        0.89786
H          3.76464        1.70037        0.57892
H          3.94112       -1.21201       -0.55307
H          2.31146       -3.11025        0.14780
H         -0.07100       -2.71763        0.31044
H          0.44664        2.76495       -0.44794
H         -2.02925        2.76726       -0.45055
H         -4.68211       -0.95253        0.15521
H         -2.39694       -2.56107        0.36414
