31
Coordinates from ORCA-job ./opt_b97-3c_parallel
N          2.85955       -3.31765       -0.22788
C          2.74717       -2.19117       -0.06980
C          2.28741       -0.83523        0.00792
C          3.29729        0.20309       -0.03501
N          4.64159       -0.03521       -0.13298
N          3.01572        1.28465       -0.00483
C          1.66859        1.28549        0.03924
N          0.86757        2.35394        0.10195
C         -0.46624        2.15496        0.09974
N         -1.10299        3.34678        0.31524
C         -1.10620        0.87566        0.01198
C         -2.51848        0.79293       -0.16996
N         -3.24549        1.90172       -0.52512
C         -3.35503       -0.32473       -0.11631
C         -3.06647       -1.65803        0.12912
N         -4.12864       -2.51697        0.19287
C         -1.81331       -2.21971        0.27133
C         -0.57873       -1.59927        0.20205
C         -0.23371       -0.24675        0.08407
C          1.14905        0.02293        0.05577
H          4.97444       -0.97516       -0.31825
H          5.27314        0.73815       -0.31087
H         -2.05152        3.31101        0.67348
H         -0.53352        4.14091        0.58502
H         -2.73541        2.71328       -0.85805
H         -4.18279        1.76334       -0.88648
H         -4.41540       -0.12547       -0.27344
H         -5.04530       -2.19022       -0.09250
H         -3.95525       -3.51608        0.20404
H         -1.78024       -3.29674        0.42764
H          0.22625       -2.31296        0.30758
