33
Coordinates from ORCA-job ./opt_b97-3c_parallel
N          3.55247       -1.99862       -1.33038
C          2.95988       -1.16376       -0.82087
C          2.21560       -0.07714       -0.20204
C          2.99186        1.10060       -0.00023
N          4.36212        1.04341       -0.09752
C          2.52960        2.37616        0.33345
C          1.18395        2.85357        0.30001
N          0.40922        2.09723        0.19119
C         -0.08077        0.86113        0.06099
C          0.80293       -0.24582       -0.00560
C          0.22148       -1.53631        0.17302
C          0.97195       -2.69396        0.62464
N          1.54444       -3.61108        0.99792
C         -1.16731       -1.69845        0.13919
N         -1.81891       -2.87621        0.40059
C         -2.03586       -0.62224       -0.20933
C         -3.37909       -0.10473       -0.25542
N         -4.33906       -1.04054       -0.51934
C         -3.82897        1.24438       -0.04169
C         -2.46693        1.67008        0.08065
N         -2.27575        3.01452        0.24864
C         -1.48207        0.67921        0.00525
H          4.89689        1.90457       -0.09490
H          4.79589        0.20583       -0.47284
H          3.21653        3.20624        0.48644
H          0.80312        3.82077        0.60522
H         -2.81964       -2.84481        0.56299
H         -1.29313       -3.63669        0.81868
H         -4.04863       -1.95571       -0.84675
H         -5.28295       -0.73316       -0.72569
H         -4.59592        1.75955       -0.61175
H         -1.33624        3.38114        0.14130
H         -3.05502        3.64195        0.08376
