34
Coordinates from ORCA-job ./opt_b97-3c_parallel
N         -4.82908        2.22757        0.13811
C         -3.80983        1.70944        0.13748
C         -2.50109        1.05651        0.11643
C         -2.46110       -0.24773       -0.42460
N         -3.64248       -0.70042       -0.99087
C         -1.39568       -1.17755       -0.36183
C         -1.66109       -2.46216       -1.00330
N         -1.88006       -3.45758       -1.52200
C         -0.06045       -0.95564        0.06196
C          0.78918       -2.05444        0.41059
C          0.29990       -3.30121        0.96470
N         -0.07381       -4.27881        1.42241
C          2.18088       -1.94912        0.43953
C          2.79210       -0.76940        0.06530
C          4.16143       -0.64293       -0.07935
C          4.63133        0.62095       -0.55856
C          3.22020        0.86346       -0.72539
N          3.06720        1.98193       -1.49720
C          1.97068        0.35882       -0.20703
C          0.54531        0.31980        0.06416
C         -0.05026        1.53831        0.44370
C          0.87560        2.60548        0.81283
N          1.58966        3.44333        1.12339
C         -1.42133        1.82742        0.59290
N         -1.73504        3.05949        1.14269
H         -4.48537       -0.14294       -0.89768
H         -3.74105       -1.68534       -1.21616
H          2.79203       -2.80823        0.71399
H          4.82108       -1.48774        0.10587
H          5.39535        0.74043       -1.32096
H          2.17637        2.46519       -1.45618
H          3.88801        2.55006       -1.67551
H         -2.67935        3.41645        1.03514
H         -0.99069        3.73454        1.28533
