28
Coordinates from ORCA-job ./opt_b97-3c_parallel
N          4.72165       -1.91311       -0.30475
C          3.83926       -1.20911       -0.12849
C          2.70524       -0.36289        0.08420
C          2.81954        1.00530        0.15547
N          3.89902        1.80511        0.19350
C          1.47266        1.30212        0.20385
C          1.01420        2.63853       -0.01946
N          0.60110        3.68904       -0.19679
C          0.52332        0.21952        0.17316
C          1.36498       -0.85467        0.08907
C          0.93007       -2.17346        0.00845
C         -0.43567       -2.45422        0.00579
C         -1.41485       -1.45238        0.08064
C         -2.73955       -2.03163        0.07113
N         -3.93999       -1.35896       -0.00846
C         -3.78456        0.00072        0.02008
N         -4.80361        0.41404       -0.06447
N         -3.08855        1.17872        0.09222
C         -1.70571        1.10481        0.17979
C         -0.88897       -0.09178        0.16681
H          4.79881        1.46645       -0.14384
H          3.81837        2.78869       -0.05892
H          1.64886       -2.98884       -0.05642
H         -0.73579       -3.49910       -0.05734
H         -3.17905       -3.03973        0.02905
H         -5.12270        1.38095       -0.11467
H         -5.60347       -0.16027       -0.32732
H         -1.79866        2.20142        0.21063
