21
Coordinates from ORCA-job ./opt_b97-3c_parallel
N          0.85481       -2.53131       -0.28039
C          1.08302       -1.24311        0.11528
N          2.19526       -1.17814        0.18048
C          2.90139       -0.30843        0.14722
N          2.83465        0.80629        0.06401
C          1.96789        1.50193       -0.02910
C          0.55367        1.17853       -0.01471
C         -0.39391        2.20495       -0.05688
N         -1.72821        1.98009       -0.03348
C         -2.13706        0.69058        0.03835
N         -3.38292        0.21094        0.07929
C         -2.78559       -0.74661        0.12468
N         -1.95673       -1.51306        0.16220
C         -1.27435       -0.36437        0.08581
C          0.11232       -0.15767        0.05548
H         -0.10219       -2.86158       -0.34668
H          1.58323       -3.22437       -0.15237
H          3.89947       -0.71852        0.18686
H          2.44331        2.45637       -0.22030
H         -0.09265        3.24966       -0.10648
H         -3.66269       -1.38008        0.10081
