31
Coordinates from ORCA-job ./opt_b97-3c_parallel
N         -5.44923        2.17890       -0.06812
C         -4.50672        1.53329       -0.07325
C         -3.32111        0.70704       -0.06558
C         -2.13302        1.50425       -0.00995
N         -1.09930        1.14498        0.00512
C         -0.31215        0.05894        0.00913
C         -0.86186       -1.23979       -0.01672
C         -2.23625       -1.54545       -0.06853
C         -3.35353       -0.69511       -0.09615
N         -4.57305       -1.31930       -0.15605
C         -0.00810       -2.35048        0.01665
C          1.37365       -2.21369        0.06590
N          2.17826       -3.31426        0.13532
C          1.96805       -0.91030        0.04848
C          3.03038        0.05915       -0.01368
N          4.16720       -0.67273       -0.21831
C          3.14267        1.49072        0.09220
C          4.08687        2.56146        0.03181
N          5.20330        2.73167       -0.14560
C          1.70940        1.46285        0.06750
C          1.08501        0.22119        0.04269
H         -2.03497        2.56475        0.19043
H         -2.47791       -2.60669       -0.09184
H         -4.62443       -2.32267       -0.02010
H         -5.41573       -0.76910       -0.02541
H         -0.42617       -3.35504        0.01421
H          3.15144       -3.17899        0.38756
H          1.75493       -4.20926        0.35296
H          4.07413       -1.64028       -0.50782
H          5.02360       -0.18275       -0.45500
H          1.14701        2.39357        0.06546
