27
Coordinates from ORCA-job ./opt_b97-3c_parallel
N          5.91724        1.74637       -0.00262
C          4.91875        1.19035       -0.00152
C          3.66982        0.47591       -0.00001
C          3.53301       -0.90510        0.00211
C          2.17340       -1.16157        0.00259
C          1.50677       -2.36922        0.00437
N          0.15818       -2.39104        0.00426
C         -0.57144       -1.23534        0.00246
C         -1.94807       -1.47574        0.00153
C         -3.04396       -0.61280       -0.00119
N         -4.25812       -1.25570       -0.00460
C         -3.03013        0.78919       -0.00201
C         -4.29029        1.50496       -0.00527
N         -5.28773        2.06359        0.00021
C         -1.90955        1.61321       -0.00111
C         -0.56139        1.28357       -0.00045
C          0.06262        0.03283        0.00096
C          1.46931        0.02150        0.00113
C          2.40468        1.05531       -0.00096
H          4.33498       -1.63922        0.00277
H          2.02236       -3.32760        0.00577
H         -2.21590       -2.53301        0.00240
H         -5.11905       -0.71858        0.00793
H         -4.30035       -2.26873        0.01067
H         -2.10434        2.68491       -0.00215
H          0.08127        2.15716       -0.00101
H          2.20785        2.12392       -0.00232
