31
Coordinates from ORCA-job ./opt_b97-3c_parallel
N         -5.77738        0.72928        0.54827
C         -4.66589        0.51745        0.38280
C         -3.25468        0.26633        0.16980
C         -2.93464       -1.11124       -0.13117
N         -3.71552       -1.93466       -0.89886
N         -2.05897       -1.77866       -0.05274
C         -1.04043       -1.40917        0.15933
C         -0.27508       -0.19197        0.06357
C         -0.88971        1.07998        0.11432
C         -0.03346        2.19533        0.05193
N          1.30911        2.12090       -0.05665
C          1.86655        0.89425       -0.10275
C          3.29363        0.77831       -0.20471
C          4.27433        1.79052       -0.46004
N          5.35910        2.14680       -0.40235
C          3.00866       -0.63146       -0.05541
N          4.24412       -1.16901        0.19894
C          1.85656       -1.50657       -0.08392
C          1.80798       -2.93333       -0.19194
N          1.71694       -3.80346        0.54288
C          1.12171       -0.27074       -0.04430
C         -2.28757        1.28985        0.23961
N         -2.74632        2.56992        0.44734
H         -4.67431       -1.66616       -1.09345
H         -3.47997       -2.91803       -0.97300
H         -0.82584       -2.30683        0.72924
H         -0.40891        3.21596        0.06922
H          5.06830       -0.59343        0.05584
H          4.35503       -2.17723        0.18157
H         -3.72011        2.69548        0.70450
H         -2.08755        3.27947        0.74743
