30
Coordinates from ORCA-job ./opt_b97-3c_parallel
N          2.44506       -3.39019       -0.33298
C          2.36240       -2.26450       -0.15267
C          2.14936       -0.85599       -0.01968
C          3.20888        0.12536        0.08755
N          4.53256       -0.21189        0.05852
N          2.97708        1.21953        0.18003
C          1.63136        1.29629        0.13808
N          0.86248        2.39805        0.19854
C         -0.48075        2.25679        0.10007
N         -1.11528        3.45597        0.26324
C         -1.14526        1.00630       -0.07174
C         -2.55587        0.90155       -0.26071
N         -3.33766        1.99411       -0.52803
C         -3.27500       -0.29971       -0.25671
C         -2.72108       -1.59472        0.03184
N         -3.47446       -2.62752        0.51201
N         -1.72017       -2.05688       -0.00315
C         -0.80505       -1.48205       -0.22509
C         -0.30851       -0.13718       -0.07631
C          1.06842        0.05946        0.02131
H          5.22940        0.52020       -0.02573
H          4.80493       -1.15772       -0.18696
H         -0.56197        4.23869        0.59342
H         -2.09596        3.43744        0.52141
H         -2.87127        2.84215       -0.83267
H         -4.27716        1.83391       -0.87496
H         -4.34827       -0.30849       -0.43865
H         -4.48401       -2.54405        0.54774
H         -3.06669       -3.55206        0.59894
H         -0.38168       -2.41044        0.14396
