26
Coordinates from ORCA-job ./opt_b97-3c_parallel
N         -5.47464       -0.68988        0.07762
C         -4.39254       -0.32275        0.06482
C         -3.02390        0.13743        0.03330
C         -2.84446        1.51432        0.01865
C         -1.65479        2.22357       -0.01959
C         -0.34898        1.75227       -0.05892
C          0.13489        0.43622       -0.06059
C         -0.64732       -0.73935       -0.02139
C          0.01543       -1.97777       -0.02832
N          1.35219       -2.13349       -0.07996
C          2.08457       -1.00878       -0.12114
C          3.51084       -1.10640       -0.18995
C          3.56906        0.33381       -0.15905
N          4.84278        0.82122       -0.06720
C          2.51262        1.31511       -0.15379
C          1.53536        0.26050       -0.10770
C         -2.04159       -0.84950        0.01944
H         -3.74606        2.12495        0.03713
H         -1.75972        3.30640       -0.02406
H          0.37877        2.55604       -0.09524
H         -0.53770       -2.91517        0.00303
H          4.11616       -1.78865        0.39867
H          5.00057        1.81449       -0.19647
H          5.62197        0.18818       -0.21222
H          2.49819        2.21656        0.45045
H         -2.42899       -1.86776        0.04021
