31
Coordinates from ORCA-job ./opt_b97-3c_parallel
N         -5.84520       -1.67512        0.38409
C         -4.78976       -1.24079        0.32831
C         -3.45080       -0.70781        0.24475
C         -2.37783       -1.57630        0.44781
C         -1.01026       -1.27688        0.40428
C         -0.35638       -0.04531        0.20092
C         -1.02546        1.18336        0.06868
C         -0.29402        2.36466        0.06390
C          1.08535        2.35331        0.18524
C          1.84062        1.12990        0.20639
C          3.25199        0.87935        0.11045
N          4.20429        1.86097        0.12259
C          3.33463       -0.55463        0.03145
C          4.62602       -1.17016       -0.02932
N          5.48809       -1.82826       -0.39337
C          2.03909       -1.17383       -0.06582
N          1.92463       -2.46561       -0.50275
C          1.10057       -0.10572        0.15655
N         -2.35979        1.28442       -0.01888
C         -3.27487        0.68601       -0.05264
N         -4.19940        1.47152       -0.68144
H         -2.62505       -2.61582        0.65355
H         -0.37662       -2.13981        0.57823
H         -0.81082        3.31980       -0.00337
H          1.63211        3.29261        0.21078
H          5.17769        1.58901        0.21420
H          3.94085        2.79847        0.40350
H          1.02244       -2.78910       -0.83363
H          2.75615       -2.94146       -0.83656
H         -5.15651        1.14595       -0.76262
H         -4.02535        2.46472       -0.78171
