29
Coordinates from ORCA-job ./opt_b97-3c_parallel
N          3.97802        1.36539       -1.26126
C          3.20724        0.64355       -0.82319
C          2.23737       -0.29509       -0.29137
C          2.72191       -1.59600       -0.40755
C          2.12198       -2.77975       -0.03908
C          0.82420       -2.96712        0.38506
C         -0.23685       -2.06497        0.38448
C         -1.41667       -2.68221        0.95911
N         -2.33310       -3.18540        1.42208
C         -0.23051       -0.67523        0.08415
C          0.93784        0.14584        0.08607
C          0.75466        1.51066        0.45414
C          1.77869        2.33118        1.06638
N          2.57157        2.98432        1.56717
C         -0.50157        2.09512        0.46934
C         -1.61159        1.40678       -0.08572
C         -2.99941        1.41167       -0.46316
N         -3.53860        2.66369       -0.38603
C         -3.74761        0.26086       -0.88941
C         -2.62997       -0.60062       -0.64819
C         -1.47402       -0.01573       -0.13677
H          3.74737       -1.71397       -0.75883
H          2.74699       -3.66911       -0.08247
H          0.60454       -3.99111        0.68757
H         -0.65357        3.10936        0.83387
H         -3.00961        3.39797        0.07132
H         -4.54492        2.76886       -0.45435
H         -4.78119        0.05340       -0.63170
H         -2.69475       -1.63609       -0.96897
