27
Coordinates from ORCA-job ./opt_b97-3c_parallel
N          4.78883       -1.35733        0.18532
C          3.74071       -0.91027        0.10075
C          2.40675       -0.37471        0.02371
C          2.33831        0.99676        0.02524
N          3.18398        2.04187       -0.02242
C          0.97573        1.09885        0.00380
C          0.21161        2.30755        0.05720
C         -1.16763        2.25224        0.09617
C         -1.90454        1.01295        0.05221
N         -3.27295        1.17899        0.14449
C         -4.04520        0.06560        0.09584
N         -4.23815       -1.26931       -0.02351
C         -3.07621       -1.98377       -0.18920
C         -1.71359       -1.49514       -0.19457
C         -1.19180       -0.19746       -0.06455
C          0.21121       -0.10695       -0.05573
C          1.18902       -1.15494       -0.03419
N          1.31023       -2.25616       -0.01865
H          2.88151        2.92671       -0.42381
H          4.15936        1.89616       -0.27716
H          0.70594        3.27559        0.08094
H         -1.73221        3.18139        0.14111
H         -5.06134        0.47111        0.21325
H         -3.31708       -3.05081       -0.30605
H         -1.05397       -2.33336       -0.34430
H          2.17573       -2.73478        0.22723
H          0.61135       -2.54203        0.66378
