29
Coordinates from ORCA-job ./opt_b97-3c_parallel
N         -4.02685       -1.24743       -0.34491
C         -3.12021       -0.61392       -0.28199
C         -3.32464        0.72983       -0.47826
C         -1.99424        0.89381       -0.25302
N         -1.36197        2.13712       -0.28029
C          0.00223        2.19177       -0.05349
N         -0.03522        3.29335       -0.18855
C          0.77885        0.99971        0.21216
C          2.19150        1.27292        0.36855
N          3.24087        0.48558       -0.07969
C          2.99164       -0.86910       -0.14104
N          4.00197       -1.13416       -0.50823
N          2.10065       -1.89001        0.14721
C          0.81730       -1.52237        0.54590
N          0.64694       -2.58389        0.83257
C          0.15162       -0.25276        0.25891
C         -1.27837       -0.32428       -0.00262
C         -2.05023       -1.44435       -0.06400
H         -4.93167       -0.78387       -0.44491
H         -4.22677       -2.24237       -0.45915
H         -4.06487        1.28391        0.09945
H         -0.74001        3.94285        0.17470
H          0.57816        3.89295       -0.74697
H          2.78542        2.20114        0.34437
H          4.84185       -0.56627       -0.64351
H          4.28354       -2.07014       -0.80696
H         -0.29685       -2.70978        1.20625
H          1.07461       -3.50686        0.96593
H         -1.81397       -2.24983       -0.76355
