28
Coordinates from ORCA-job ./opt_b97-3c_parallel
N          0.36391       -3.64377        0.63287
C          0.61065       -2.55202        0.40075
C          0.94763       -1.17723        0.11277
C          2.38761       -1.15897        0.15875
N          3.24511       -0.47513        0.03223
C          3.08953        0.61471       -0.00580
N          4.35895        0.97750       -0.35726
C          2.02481        1.56969        0.14561
C          0.65505        1.26993        0.18241
C         -0.16918        2.39754        0.27628
C         -1.54820        2.29210        0.34118
C         -2.14623        0.99584        0.32118
C         -3.34434        0.26055        0.01437
N         -4.43643        1.07764       -0.04693
C         -3.48573       -1.15055       -0.22095
C         -2.05999       -1.27866       -0.23147
C         -1.31283       -0.15185        0.09563
C          0.10183       -0.04104        0.12273
H          3.08856       -1.98775        0.13793
H          5.04397        0.26539       -0.58536
H          4.55727        1.93540       -0.62264
H          2.37901        2.59690        0.20806
H          0.26934        3.39284        0.30700
H         -2.16221        3.18606        0.41471
H         -4.34948        2.03070        0.28793
H         -5.35950        0.65861       -0.06537
H         -4.17136       -1.60258       -0.93047
H         -1.65292       -2.21639       -0.58777
