30
Coordinates from ORCA-job ./opt_b97-3c_parallel
N         -2.54649        2.96007       -0.78249
C         -2.09684        1.95579       -0.47201
C         -1.53894        0.66638       -0.10803
C         -2.56994       -0.35054       -0.23646
N         -3.90246       -0.15280       -0.51204
N         -2.71462       -1.42967       -0.05444
C         -1.89575       -2.14108        0.14162
N         -2.48111       -3.12703        0.88344
C         -0.48543       -2.11219       -0.12478
C          0.31976       -0.96448       -0.09050
C         -0.14997        0.37858        0.02596
C          0.82595        1.40563        0.23074
C          0.48200        2.75054        0.65360
N          0.23326        3.80797        1.00967
C          2.20520        1.12147        0.16250
N          3.17152        2.07914        0.34606
C          2.59680       -0.18574       -0.08512
C          3.91299       -0.72803       -0.17992
N          3.22590       -1.62138       -0.27193
C          2.41680       -2.40755       -0.33971
C          1.69759       -1.18273       -0.18136
H         -4.26348        0.78887       -0.62073
H         -4.56407       -0.91643       -0.42466
H         -1.94972       -3.94349        1.16430
H         -3.48507       -3.12871        1.02523
H         -0.06929       -3.11166       -0.22643
H          2.89309        2.98492        0.70945
H          4.12985        1.78185        0.49181
H          4.82087       -0.24484       -0.52091
H          2.25004       -3.20702       -1.05203
