33
Coordinates from ORCA-job ./opt_b97-3c_parallel
N         -4.66259        2.95867        0.22078
C         -3.91931        2.09103        0.17647
C         -2.97013        1.00627        0.10152
C         -1.60975        1.30900        0.21786
C         -0.53278        0.40433        0.12315
C         -0.66890       -1.00195        0.02644
C         -1.97464       -1.61467        0.16467
N         -2.25054       -2.60146        1.07492
N         -3.02652       -1.34092       -0.03893
C         -3.45198       -0.32786       -0.16716
N         -4.67655       -0.61001       -0.70953
C          0.46936       -1.81905       -0.16916
N          0.33269       -3.17624       -0.32910
C          1.75119       -1.24913       -0.21114
C          2.93960       -2.04988       -0.40197
N          3.87486       -2.68614       -0.56494
C          1.84785        0.12842       -0.05550
C          2.97421        0.98839       -0.05774
C          4.39378        0.86952       -0.18023
N          5.48242        0.80271        0.16316
C          2.24270        2.22541        0.11631
N          2.86018        3.44101        0.19018
N          1.12369        2.23808        0.19647
C          0.76219        0.93901        0.10149
H         -1.37557        2.36347        0.34744
H         -3.17512       -3.01794        1.09000
H         -1.48439       -3.15172        1.44814
H         -5.02026       -1.56355       -0.69166
H         -5.35777        0.13501       -0.80893
H          1.13914       -3.71727       -0.62420
H         -0.59072       -3.55272       -0.51723
H          2.32173        4.26164        0.44486
H          3.87071        3.49020        0.26384
