27
Coordinates from ORCA-job ./opt_b97-3c_parallel
N          4.96144        1.05149       -0.13907
C          3.82190        1.12775       -0.13165
C          2.39693        1.24406       -0.08687
C          1.80159        2.53899        0.00939
N          0.83319        2.00003        0.02155
C          0.10759        1.16278        0.02127
C          1.28102        0.34722       -0.06703
C          1.25794       -1.04892       -0.08715
C          2.48751       -1.79799       -0.20664
N          3.45134       -2.40452       -0.30310
C          0.01799       -1.70001        0.02537
N         -0.03458       -3.07244       -0.00852
C         -1.17195       -0.96334        0.17703
C         -2.41398       -1.68651        0.37933
N         -3.67198       -1.34389        0.05532
C         -3.93488       -0.11013       -0.38985
N         -3.31992        1.01934       -0.55251
C         -2.31093        1.27337        0.22142
N         -2.57534        2.34024        0.34185
C         -1.13247        0.44244        0.16302
H          2.24147        3.54669        0.05240
H          0.80693       -3.57638       -0.26985
H         -0.92387       -3.51451       -0.21234
H         -2.60537       -2.70056        0.76080
H         -5.01867       -0.24129       -0.52726
H         -1.61963        2.68208        0.25952
H         -3.18732        3.09863        0.04899
