30
Coordinates from ORCA-job ./opt_b97-3c_parallel
N         -5.42824        2.14730        0.01163
C         -4.49824        1.48305        0.01348
C         -3.33153        0.63032        0.01040
C         -2.12629        1.40284        0.00354
N         -1.09988        1.02627        0.00333
C         -0.34886       -0.08404        0.00066
C         -0.91468       -1.38251       -0.00397
C         -2.29664       -1.64708        0.00318
C         -3.39512       -0.77092        0.01187
N         -4.63039       -1.36649        0.02463
N         -0.12418       -2.49437       -0.01422
C          1.22196       -2.37676       -0.02271
C          1.81737       -1.12536       -0.01749
C          3.15521       -0.77516       -0.02365
N          4.13753       -1.72717       -0.04318
C          3.31989        0.66941       -0.01259
C          4.53054        1.42798       -0.05229
N          5.57747        1.87475        0.05186
C          1.92456        1.08460        0.00651
N          1.51440        2.38914        0.05082
C          1.05232        0.00071       -0.00341
H         -2.00748        2.48024       -0.00624
H         -2.55715       -2.70499        0.00255
H         -4.71102       -2.37663       -0.01370
H         -5.46965       -0.79682       -0.00786
H          1.79729       -3.30030       -0.03168
H          5.09885       -1.43717        0.10362
H          3.89346       -2.69286        0.14568
H          0.52693        2.60502       -0.03445
H          2.19642        3.13449       -0.03944
