25
Coordinates from ORCA-job ./opt_b97-3c_parallel
N          3.31464       -2.70167       -0.41692
C          3.22485       -1.58297       -0.20079
C          2.39254       -0.43000       -0.06091
C          3.22968        0.74766        0.02372
N          2.79348        1.78014        0.13500
C          1.46465        1.55294        0.14972
C          0.45380        2.49697        0.27724
C         -0.87298        2.06458        0.26477
C         -1.19194        0.70346        0.13387
C         -2.58587        0.33348        0.07002
N         -3.50816        1.02454       -0.66722
N         -3.19658       -0.56336        0.27243
C         -2.84927       -1.61116        0.33278
C         -1.61093       -2.29012        0.06106
C         -0.37600       -1.64736       -0.04545
C         -0.16352       -0.25977        0.03773
C          1.14577        0.23083        0.03196
H          4.30952        0.83884       -0.00168
H          0.69036        3.55343        0.37802
H         -1.66753        2.80204        0.35242
H         -3.26832        1.91801       -1.08088
H         -4.47147        0.71088       -0.70643
H         -3.77121       -2.02165        0.72783
H         -1.66923       -3.37386       -0.00218
H          0.48446       -2.29623       -0.17652
