29
Coordinates from ORCA-job ./opt_b97-3c_parallel
N          3.08042       -3.60972        0.42436
C          2.25510       -2.82551        0.32502
C          1.21369       -1.83791        0.18107
C         -0.11324       -2.24391        0.16660
C         -1.14386       -1.31843        0.00452
C         -2.47702       -1.86472       -0.02928
N         -3.48978       -1.55631        0.27792
C         -3.81439       -0.50242        0.29824
C         -3.28601        0.71117       -0.26427
C         -1.92402        0.98799       -0.43025
N         -1.67854        2.23302       -0.94203
C         -0.87519        0.06230       -0.16526
C          0.48601        0.45673       -0.08581
C          0.96345        1.81610       -0.04926
C          0.73964        2.74710        1.01715
N          0.58523        3.87594        1.10918
C          2.33647        1.36876       -0.01812
N          3.49651        2.09594       -0.03197
C          2.84295        0.02666        0.10511
C          1.50087       -0.47958        0.06760
H         -0.35021       -3.30152        0.26786
H         -2.78532       -2.90320        0.01950
H         -4.66108       -0.61963        0.96494
H         -4.04783        1.45065       -0.50254
H         -0.75815        2.43475       -1.31618
H         -2.45961        2.77673       -1.29223
H          4.35742        1.63650        0.24434
H          3.43126        3.09750        0.11847
H          3.68644       -0.38349       -0.44469
