32
Coordinates from ORCA-job ./opt_b97-3c_parallel
N         -0.40220       -3.59698        1.15406
C         -0.82739       -2.60023        0.78880
C         -1.39973       -1.34708        0.34770
C         -2.80550       -1.39931        0.29789
C         -3.70351       -0.38700       -0.03404
C         -3.34649        0.96400       -0.33341
N         -4.25865        1.95548       -0.53731
N         -2.33521        1.35707       -0.23506
C         -1.03811        1.07239       -0.07503
C         -0.17271        2.15620        0.00695
C          1.17810        1.97976        0.25023
N          1.98575        3.07287        0.39362
C          1.77670        0.67278        0.22035
C          3.14852        0.29260        0.02226
N          4.38790        0.84121        0.18788
C          3.07173       -1.05853       -0.45109
C          1.71427       -1.52448       -0.49377
N          1.67019       -2.70458       -1.18278
C          0.89991       -0.45593        0.02519
C         -0.54819       -0.23509        0.09482
H         -3.27206       -2.35528        0.53035
H         -4.76978       -0.60103       -0.05144
H         -3.95617        2.92275       -0.50866
H         -5.24714        1.76226       -0.42352
H         -0.57466        3.16621       -0.06040
H          2.98720        2.94107        0.30379
H          1.60652        3.98774        0.17637
H          5.20068        0.23755        0.12610
H          4.47055        1.69938        0.72191
H          3.93469       -1.64139       -0.76069
H          2.52649       -3.23946       -1.26908
H          0.79849       -3.22372       -1.17075
