24
Coordinates from ORCA-job ./opt_b97-3c_parallel
N         -1.92494       -3.23236        0.12475
C         -1.94578       -2.08957        0.09594
C         -1.99331       -0.65039        0.05807
C         -3.17279        0.08646        0.07768
C         -2.84929        1.43619        0.04650
C         -1.46785        1.52065        0.00997
C         -0.67290        2.65461       -0.02412
C          0.71030        2.48100       -0.04479
C          1.29326        1.20112       -0.03387
C          2.69837        1.16167       -0.03562
C          3.49309        0.01511        0.01788
C          2.97573       -1.32317        0.10173
N          1.98534       -1.79554       -0.01277
C          1.01262       -1.27603       -0.04426
C          0.46150        0.05574       -0.01609
C         -0.92675        0.25021        0.01494
H         -4.17912       -0.32413        0.11606
H         -3.54901        2.26834        0.05446
H         -1.11207        3.64947       -0.02857
H          1.34205        3.36638       -0.06311
H          3.23192        2.10906       -0.06731
H          4.57686        0.10258        0.02349
H          3.51804       -2.24270        0.29058
H          0.71697       -2.11593       -0.66403
