24
Coordinates from ORCA-job ./opt_b97-3c_parallel
N          5.49670       -0.63495       -0.00092
C          4.38035       -0.38951        0.00018
C          2.97856       -0.06068        0.00116
C          2.57262        1.27409        0.00146
C          1.26168        1.76476        0.00128
C          0.04115        1.06885        0.00114
N         -1.07256        1.85716       -0.00099
C         -2.30273        1.29607       -0.00215
N         -3.37320        2.14142       -0.00967
C         -2.44608       -0.08677        0.00011
C         -3.61627       -0.90048       -0.00174
N         -2.75666       -1.64113        0.00014
C         -1.79016       -2.23571        0.00207
C         -1.35629       -0.87808        0.00207
C         -0.06469       -0.34269        0.00189
N          0.99230       -1.16841        0.00201
C          2.08727       -1.18204        0.00123
H          3.36055        2.02442        0.00148
H          1.18679        2.85043        0.00107
H         -4.31672        1.77279        0.01312
H         -3.22345        3.14404        0.01140
H         -4.65445       -0.59260        0.00202
H         -1.19184       -3.13869       -0.00026
H          2.32615       -2.23899       -0.00127
