26
Coordinates from ORCA-job ./opt_b97-3c_parallel
N         -4.99532        2.14944       -0.02150
C         -4.11388        1.42221       -0.00040
C         -2.99436        0.51706        0.01245
C         -3.32547       -0.88267       -0.02806
N         -2.78987       -1.84505        0.04135
C         -1.69237       -1.96189        0.02749
C         -0.48167       -1.17840       -0.02240
C          0.76160       -1.83882       -0.08528
N          0.84836       -3.20021       -0.14795
N          1.95210       -1.19694       -0.10051
C          1.91158        0.14888       -0.05303
C          3.11383        0.95647       -0.06074
C          4.52362        0.79661        0.09918
N          5.64009        0.58027       -0.01444
C          2.45669        2.25380       -0.00990
C          1.07301        2.19019        0.02170
C          0.73490        0.86250       -0.00537
C         -0.51347        0.23310        0.00582
C         -1.68640        1.00988        0.03151
H         -4.30468       -1.34122       -0.11281
H         -1.85533       -2.91020        0.52877
H          0.01893       -3.72431       -0.40220
H          1.75012       -3.60769       -0.37103
H          2.95661        3.21939        0.00408
H          0.39874        3.04223        0.06142
H         -1.58446        2.09133        0.05142
