31
Coordinates from ORCA-job ./opt_b97-3c_parallel
N         -5.15925       -1.57336        0.96061
C         -4.10401       -1.61281        0.52026
C         -3.01058       -0.71051        0.33995
C         -1.62238       -1.06969        0.30032
C         -0.69017       -0.11920       -0.11112
C         -1.29634        1.16241       -0.34816
C         -0.47080        2.32800       -0.34045
N         -1.01504        3.57157       -0.48842
C          0.89739        2.17160       -0.19277
C          1.48973        0.90850       -0.11145
N          2.81805        0.91014        0.04288
C          3.75626        0.37549        0.18465
N          4.79089        1.08135        0.72274
C          3.81645       -1.02846       -0.07095
C          2.72475       -1.86925       -0.28296
C          1.34803       -1.56288       -0.29498
C          0.57969       -2.72506       -0.68470
N         -0.00483       -3.65394       -1.00435
C          0.72417       -0.28202       -0.15839
C         -2.56892        0.62957        0.06019
N         -3.55742        1.55798        0.23100
H         -1.36320       -2.02745        0.73812
H         -1.97677        3.63561       -0.80422
H         -0.39602        4.34363       -0.70948
H          1.52893        3.05790       -0.16239
H          5.70593        0.65477        0.81509
H          4.71320        2.08579        0.83615
H          4.82409       -1.43585       -0.11305
H          3.00151       -2.90579       -0.47185
H         -4.42753        1.26603        0.66438
H         -3.29648        2.53573        0.29656
