29
Coordinates from ORCA-job ./opt_b97-3c_parallel
N         -4.37352       -1.69218        0.60559
C         -3.40721       -1.10672        0.42954
C         -2.17497       -0.37962        0.19767
C         -2.37044        1.01923       -0.11328
N         -3.41573        1.51717       -0.84632
N         -1.81792        1.96840       -0.01042
C         -0.74746        1.94884        0.25829
C          0.42159        1.11877        0.09975
C          1.66794        1.76658       -0.02313
N          1.76071        3.13313       -0.03550
C          2.84517        1.03048       -0.13108
C          2.76997       -0.35241       -0.12785
N          3.80177       -1.21246       -0.25144
C          3.36098       -2.24644       -0.24383
C          1.92968       -2.34196       -0.10146
C          1.56027       -0.97552       -0.00548
C          0.32802       -0.29744        0.11916
C         -0.90518       -0.99138        0.27236
N         -0.89722       -2.33754        0.54125
H         -3.54328        2.52088       -0.91311
H         -4.22282        0.92831       -1.02051
H         -0.84443        2.88632        0.79519
H          0.91611        3.67554       -0.17646
H          2.64539        3.55652       -0.29494
H          3.80905        1.52608       -0.22664
H          4.09381       -3.03280       -0.37943
H          1.34284       -3.25283       -0.13586
H         -1.76920       -2.77243        0.82358
H         -0.03880       -2.74740        0.88957
