26
Coordinates from ORCA-job ./opt_b97-3c_parallel
N          3.88023        1.04686       -0.26429
C          3.16227        0.22507       -0.10192
C          3.45164       -1.10728       -0.04799
C          2.36741       -1.92328        0.08889
N          1.29975       -1.66086        0.17987
C          0.51898       -0.55959        0.20318
C          0.94072        0.79840        0.10760
N          2.23146        1.19167       -0.05855
N          0.01886        1.80467        0.15199
C         -1.30214        1.56987        0.31971
N         -2.13542        2.64810        0.22690
C         -1.78196        0.28539        0.52885
C         -2.98876       -0.29749        0.01597
N         -4.04821       -0.07977       -0.20777
N         -2.81983       -1.55473       -0.53477
C         -1.51798       -1.85210       -0.37736
C         -0.88974       -0.80004        0.36241
H          3.94828        2.02698       -0.53407
H          4.81429        0.65393       -0.36385
H          4.44774       -1.45542        0.22122
H          2.72053       -2.73131        0.74824
H         -3.02804        2.60789        0.70613
H         -1.69075        3.56214        0.19826
H         -4.99024       -0.44905       -0.33622
H         -4.04556        0.85112       -0.62462
H         -1.06832       -2.75323       -0.82253
