27
Coordinates from ORCA-job ./opt_b97-3c_parallel
N          5.07078        0.31025       -0.15153
C          3.95609        0.53793       -0.04536
C          2.56555        0.85025        0.05347
C          2.09286        2.13744        0.12587
C          0.71553        2.01378        0.18177
C          0.23195        3.35880        0.27424
N         -0.58237        3.89117       -0.32590
C          0.33454        0.69136        0.13223
C          1.50022       -0.09263        0.05474
C          1.50585       -1.52883       -0.02130
C          2.67240       -2.34876       -0.12214
N          3.58072       -3.03653       -0.20260
C          0.15825       -2.03274        0.02782
C         -1.07963       -1.28917        0.04996
C         -2.22268       -2.17931       -0.01617
N         -3.51903       -1.82653       -0.04668
C         -3.74136       -0.48075        0.02181
N         -4.83947       -0.39042       -0.03429
N         -3.40269        0.83806        0.11374
C         -2.04693        1.09541        0.17086
C         -0.99046        0.10589        0.12235
H          2.57884        2.92572       -0.45072
H          0.21832       -3.07389        0.34314
H         -2.35337       -3.27092       -0.07602
H         -5.41461        0.45096       -0.06340
H         -5.45728       -1.16071       -0.28739
H         -2.50708        2.09453        0.21892
