25
Coordinates from ORCA-job ./opt_b97-3c_parallel
N          3.94978       -0.90111       -0.13790
C          3.13511       -0.15100       -0.04694
C          3.58090        1.13951       -0.06021
C          2.31849        1.63951       -0.08782
N          0.94511        1.68464       -0.08231
C          0.25541        0.47852       -0.00466
C          0.83256       -0.87256        0.03935
N         -0.00685       -1.93785        0.10408
C         -1.35854       -1.86508        0.13314
C         -1.91403       -0.54483        0.08096
C         -3.23869       -0.20213        0.07722
N         -4.15713       -0.81168        0.10864
C         -3.20172        1.16969        0.00886
C         -1.94515        1.61908       -0.02568
C         -1.11734        0.54139        0.01855
N          2.19871       -1.17144       -0.00873
H          4.14727       -1.90310       -0.11293
H          4.85080       -0.46847       -0.35029
H          4.29856        1.50597        0.67360
H          2.36337        2.73822       -0.15342
H         -2.06450       -2.70826        0.18407
H         -4.88405       -0.10923       -0.02699
H         -4.64706       -1.69976        0.21409
H         -4.07981        1.81347       -0.01579
H         -1.64625        2.66406       -0.08136
