37
Coordinates from ORCA-job ./opt_b97-3c_parallel
N          4.56052       -2.02306       -0.22984
C          3.74229       -1.22776       -0.15658
C          2.70197       -0.21167       -0.07804
C          3.05468        1.00815        0.50629
N          4.28213        1.15152        1.10789
C          2.37548        2.19624        0.28517
C          1.08355        2.41870       -0.18597
N          0.91240        3.73153       -0.54573
C          0.00727        1.48897       -0.15818
C         -1.34272        1.95953       -0.04705
N         -1.66686        3.28726        0.11366
C         -2.42911        1.07246        0.00617
C         -3.79694        1.54116        0.12885
N         -4.87869        1.89888        0.22193
C         -2.18915       -0.29114        0.01539
C         -3.22877       -1.26977        0.17200
C         -2.26598       -2.33950        0.16838
N         -3.02700       -3.47232        0.25985
C         -0.83137       -2.20174        0.10830
C         -0.10667       -2.97725        1.06995
N          0.61506       -3.85723        0.96611
C         -0.90595       -0.77423       -0.09889
C          0.21198        0.08363       -0.25606
C          1.43845       -0.53053       -0.60448
N          1.38632       -1.60604       -1.46708
H          4.62970        2.07925        1.32339
H          4.93652        0.37569        1.09405
H          2.95694        3.09479        0.49565
H          0.07360        3.97835       -1.06056
H          1.73696        4.30448       -0.68891
H         -2.61718        3.52706        0.37592
H         -0.92906        3.93447        0.36982
H         -4.18247       -1.27490       -0.34915
H         -4.00212       -3.38324        0.52401
H         -2.55960       -4.34915        0.46626
H          2.20388       -2.19962       -1.56552
H          0.48551       -1.97919       -1.74419
