29
Coordinates from ORCA-job ./opt_b97-3c_parallel
N         -5.34686        1.32885        0.01453
C         -4.26408        0.96148        0.00505
C         -2.89342        0.48655        0.00167
C         -1.93857        1.49540        0.00173
C         -0.55156        1.42205       -0.00151
C          0.31533        0.31786       -0.00447
C         -0.10226       -1.03523       -0.00559
C          0.85790       -2.06184       -0.00920
C          2.21995       -1.81542       -0.01027
C          2.68839       -0.47010       -0.00440
C          3.91938        0.28437        0.00670
N          5.10915       -0.38290        0.02896
C          3.76459        1.71454        0.01320
C          2.34059        1.81785       -0.00195
C          1.71014        0.58016       -0.00462
C         -1.41295       -1.53234       -0.00469
C         -2.65045       -0.89133       -0.00209
N         -3.72404       -1.74854       -0.00518
H         -2.32531        2.51370        0.00424
H         -0.11470        2.41020       -0.00109
H          0.54985       -3.10489       -0.01200
H          2.92547       -2.64227       -0.01507
H          5.95788        0.13615        0.22488
H          5.10461       -1.38033        0.21374
H          4.51680        2.49531       -0.03316
H          1.84498        2.78139       -0.00364
H         -1.49363       -2.61797       -0.00652
H         -4.66909       -1.38006        0.01543
H         -3.57804       -2.75179        0.01222
