26
Coordinates from ORCA-job ./opt_b97-3c_parallel
N         -3.64202       -2.22374        0.03744
C         -3.14832       -1.19716       -0.04155
C         -2.55084        0.09482       -0.17311
C         -3.31691        1.28156        0.04218
N         -2.56835        2.06531       -0.14697
C         -1.50705        1.77549       -0.13299
C         -0.42018        2.65566        0.23984
C          0.93246        2.14368        0.20137
C          1.28036        0.82035       -0.06257
C          2.70310        0.55679       -0.11521
N          3.72151        0.98016       -0.15081
N          3.34206       -0.60421        0.09913
C          2.64472       -1.73891        0.23237
N          1.39896       -2.06626        0.11220
C          0.29742       -1.46942       -0.21159
N         -0.12018       -2.48987       -0.23931
C          0.15700       -0.04104       -0.32964
C         -1.18978        0.41882       -0.50977
H         -4.38194        1.28682        0.31984
H         -0.65282        3.67803        0.52418
H          1.69476        2.89721        0.38675
H          4.65766        0.74229       -0.47257
H          3.24442        1.42888       -0.92903
H          3.11549       -2.71056        0.44156
H         -0.64406       -1.94021       -0.91650
H         -0.00576       -3.41813       -0.64139
