31
Coordinates from ORCA-job ./opt_b97-3c_parallel
N         -3.77989       -3.98290       -0.77408
C         -3.16155       -3.05660       -0.51793
C         -2.37575       -1.88447       -0.21200
C         -3.08908       -0.71106       -0.06200
C         -2.62325        0.54586        0.29171
C         -3.70756        1.48573        0.51963
N         -4.56547        2.21633        0.71175
C         -1.28574        0.98098        0.40484
N         -1.15656        2.26389        0.88529
C         -0.08577        0.25282        0.17015
C          0.04646       -1.16507        0.10832
C         -1.01054       -2.08198       -0.05504
C          1.35089       -1.74421        0.17245
N          1.53677       -3.10392        0.28884
C          2.51015       -0.95573        0.12791
C          3.83870       -1.53505        0.15815
N          4.88036       -2.00513        0.19029
C          2.36927        0.41402       -0.00982
N          3.36119        1.31380       -0.18218
C          2.83823        2.29526       -0.31142
C          1.39747        2.35257       -0.22259
C          1.15229        3.71627       -0.58639
N          0.54801        4.34729       -1.32413
C          1.12637        0.97466        0.02799
H         -4.17002       -0.80613       -0.17951
H         -1.98491        2.74299        1.22400
H         -0.26011        2.56153        1.25237
H         -0.75174       -3.13101       -0.16186
H          0.75302       -3.68102        0.57226
H          2.46955       -3.44582        0.49775
H          3.57089        3.06338       -0.53888
