29
Coordinates from ORCA-job ./opt_b97-3c_parallel
N          4.07048        0.46688        1.25857
C          3.20291       -0.07174        0.74431
C          2.10858       -0.78894        0.11828
C          2.48413       -2.12115       -0.08107
C          1.73440       -3.21286       -0.47379
C          0.36309       -3.28784       -0.57547
C         -0.56058       -2.28782       -0.33542
C         -0.38392       -0.91246       -0.11902
C          0.83410       -0.17382       -0.06956
C          0.72849        1.25928       -0.15621
C          1.83818        2.11315       -0.54454
N          2.69298        2.79984       -0.86814
C         -0.51201        1.91559       -0.05715
N         -0.64281        3.28278       -0.11966
C         -1.64710        1.14261        0.09810
C         -3.00596        1.56137        0.21876
N         -3.06927        0.43365        0.19402
C         -2.92464       -0.68475        0.18252
N         -3.90704       -1.60705        0.39341
C         -1.58567       -0.20133        0.03748
H          3.53601       -2.36137        0.07701
H          2.27960       -4.13961       -0.63795
H         -0.04359       -4.26656       -0.82189
H         -1.57857       -2.65506       -0.40959
H          0.15988        3.83203       -0.40742
H         -1.56514        3.67788       -0.26036
H         -3.39880        2.55004        0.42080
H         -3.64281       -2.55074        0.65430
H         -4.83089       -1.28993        0.66430
