30
Coordinates from ORCA-job ./opt_b97-3c_parallel
N          4.40665        1.24144        0.48597
C          3.27422        1.16839        0.34543
C          1.83961        1.10489        0.18499
C          1.43208        2.45937        0.45889
N          0.59413        3.11295        0.15908
C         -0.37060        2.70670       -0.18698
N         -0.72935        3.73616       -1.01630
C         -1.07061        1.44601       -0.08833
C         -2.50872        1.60417       -0.11049
N         -3.64339        1.74082       -0.14008
C         -0.43480        0.18835       -0.01279
C          0.97664       -0.00725        0.00571
C          1.46827       -1.33418       -0.15660
C          2.86383       -1.69201       -0.26894
N          3.95815       -2.00613       -0.36836
C          0.60804       -2.42711       -0.27429
C         -0.76325       -2.26711       -0.18160
C         -1.63476       -3.33830       -0.24318
C         -3.01870       -3.03815       -0.04110
C         -2.45006       -1.77869        0.37288
N         -3.21981       -1.23210        1.36270
C         -1.30654       -0.96494        0.03019
H          1.83515        3.16262        1.18097
H         -0.24350        4.62341       -0.94338
H         -1.65933        3.74405       -1.42125
H          1.01542       -3.42703       -0.41923
H         -1.26418       -4.35165       -0.38127
H         -3.71331       -3.63556        0.54242
H         -4.13953       -1.62639        1.52656
H         -3.08879       -0.25070        1.58322
