27
Coordinates from ORCA-job ./opt_b97-3c_parallel
N          5.67739       -1.63909       -0.00662
C          4.66000       -1.11835       -0.00421
C          3.36905       -0.48076       -0.00111
C          3.38239        0.95600        0.00241
N          2.62412        1.75872        0.00649
C          1.52828        1.63116        0.00579
N          1.31730        2.98318       -0.04891
C          0.51072        0.59507        0.00250
C          0.88054       -0.77433        0.00001
C          2.20359       -1.25130       -0.00157
C         -0.11778       -1.76417       -0.00075
C         -1.46982       -1.43133        0.00019
C         -2.48054       -2.45712       -0.00015
N         -3.27247       -3.28108        0.00004
C         -1.79433       -0.08328        0.00218
C         -3.05227        0.55921        0.00328
C         -4.47169        0.40293        0.00072
N         -5.44606       -0.19388        0.00491
C         -2.57149        1.92168        0.00565
N         -1.46359        2.12162        0.00747
C         -0.86103        0.91086        0.00394
H          4.23615        1.62434       -0.00161
H          0.37198        3.34910       -0.00597
H          2.09281        3.63363        0.01347
H          2.34571       -2.33074       -0.00372
H          0.16096       -2.81655       -0.00191
H         -3.12950        2.85091        0.00512
