30
Coordinates from ORCA-job ./opt_b97-3c_parallel
N         -3.15853       -3.00578       -0.21237
C         -2.20892       -2.37016       -0.17246
C         -0.99293       -1.57870       -0.12407
C          0.24248       -2.23651       -0.09124
N          0.35125       -3.60391       -0.11781
C          1.38102       -1.45084        0.02408
C          2.72999       -1.89013        0.18872
N          2.79343       -0.76565        0.25734
C          2.65366        0.34702        0.33876
N          3.78948        1.02125        0.68210
C          1.32538       -0.09417        0.03753
C          0.11516        0.62769       -0.08271
C          0.09749        2.05076       -0.21627
C          1.31356        2.79049       -0.47155
N          2.25060        3.40555       -0.69817
C         -1.01900        2.90963       -0.26374
C         -2.37117        2.59918       -0.14072
C         -2.90233        1.28911        0.05273
N         -4.04523        1.03899        0.75146
N         -2.27315        0.40480       -0.02786
C         -1.06163       -0.16547       -0.09028
H         -0.47152       -4.14982       -0.35272
H          1.26058       -4.01664       -0.29075
H          3.09878       -2.87370        0.45158
H          3.76452        2.03207        0.76939
H          4.69080        0.56095        0.63933
H         -0.82098        3.97030       -0.41672
H         -3.11286        3.39192       -0.20203
H         -4.35852        0.08232        0.87505
H         -4.70653        1.78676        0.92773
