27
Coordinates from ORCA-job ./opt_b97-3c_parallel
N          4.96610       -2.01890       -0.00339
C          4.09025       -1.28418       -0.01343
C          2.97674       -0.36238       -0.01240
C          3.45379        0.99471        0.02500
N          3.09129        2.03615        0.01738
C          2.00310        2.20540       -0.00427
C          0.70974        1.57546       -0.00765
C         -0.39640        2.43667        0.00089
N         -1.67705        2.01429       -0.00146
C         -1.82144        0.67817       -0.01344
C         -3.04023       -0.03825       -0.01072
C         -4.38068        0.45953       -0.00096
N         -5.51774        0.35819       -0.06529
C         -2.46618       -1.36531       -0.01715
N         -3.24663       -2.48525       -0.01133
N         -1.35132       -1.49798       -0.02378
C         -0.81815       -0.25333       -0.02252
C          0.53288        0.16805       -0.02214
C          1.62268       -0.74973       -0.03468
N          1.39417       -2.10300       -0.07656
H          4.47879        1.35124        0.01301
H          2.23525        3.26549        0.00825
H         -0.26500        3.51750        0.01012
H         -2.82123       -3.39842       -0.12607
H         -4.25225       -2.40382       -0.11658
H          2.17037       -2.74290        0.05440
H          0.45016       -2.45282        0.04773
