33
Coordinates from ORCA-job ./opt_b97-3c_parallel
N          3.63049       -2.76445        0.22640
C          2.96426       -1.83760        0.16013
C          2.12762       -0.64853        0.07667
C          2.72141        0.50346       -0.45126
N          3.98557        0.43717       -0.98714
C          2.24962        1.79361       -0.25706
C          0.99986        2.24448        0.15861
N          1.03515        3.57758        0.48115
C         -0.21517        1.51063        0.15143
C         -1.46757        2.20507        0.09175
N         -1.62242        3.54970       -0.10533
N         -2.67865        1.61663        0.10100
C         -2.70752        0.28378        0.11554
C         -3.96042       -0.42495       -0.01309
C         -3.39373       -1.73456       -0.24999
C         -2.01200       -1.77183       -0.16499
C         -1.25689       -2.92347       -0.59744
N         -0.67302       -3.84305       -0.94357
C         -1.56856       -0.48565        0.11132
C         -0.27755        0.08947        0.22179
C          0.80574       -0.75567        0.54385
N          0.53876       -1.80117        1.40023
H          4.50507        1.29287       -1.14798
H          4.49324       -0.44124       -0.95393
H          2.98629        2.57590       -0.44457
H          0.23579        3.96257        0.97453
H          1.93823        4.00316        0.65907
H         -2.54205        3.88444       -0.36953
H         -0.82046        4.07219       -0.44105
H         -4.86768       -0.02907       -0.45832
H         -3.95399       -2.61970       -0.54282
H          1.22534       -2.54310        1.49400
H         -0.42458       -2.01222        1.63474
