27
Coordinates from ORCA-job ./opt_b97-3c_parallel
N         -0.84304       -4.01861       -0.00923
C         -0.41449       -2.95881        0.00268
C          0.12933       -1.62072        0.00345
C          1.52107       -1.51827        0.00155
C          2.08834       -0.25382        0.00188
C          3.46778        0.10016        0.00405
N          4.61356       -0.63841        0.01764
N          2.91417        1.08609       -0.00218
C          2.22134        1.98110       -0.00305
C          1.33064        0.86361        0.00061
C         -0.07004        0.81909        0.00250
C         -0.76205        2.03839        0.00092
C         -2.19251        2.18111        0.00024
N         -3.08440        1.53143       -0.00082
C         -3.06206        0.42969        0.01718
N         -4.40485        0.18154        0.05566
C         -2.08568       -0.62694        0.01166
C         -0.68853       -0.46097        0.00569
H          2.15192       -2.40455       -0.00004
H          4.56443       -1.64076        0.16129
H          5.50700       -0.17876        0.15216
H          2.00395        3.04172        0.01942
H         -0.25250        2.99803       -0.00094
H         -2.77865        3.09269       -0.00371
H         -5.06553        0.94082       -0.06514
H         -4.74545       -0.76946       -0.03450
H         -2.57114       -1.59949        0.01525
