26
Coordinates from ORCA-job ./opt_b97-3c_parallel
N         -4.30976       -2.58405       -0.00311
C         -3.37243       -1.92948       -0.00537
C         -2.19804       -1.08433       -0.00538
C         -1.03893       -1.91949        0.01472
N         -0.01812       -1.54317        0.01031
C          0.77081       -0.46587        0.00388
C          0.27820        0.86274       -0.00158
C          1.24981        1.90308       -0.00157
C          2.62202        1.65506        0.00068
C          3.04331        0.33781        0.00299
C          4.36789       -0.18526        0.00566
N          3.69338       -1.09556        0.00747
C          2.89120       -1.89626        0.00949
C          2.15506       -0.67365        0.00494
C         -1.11196        1.20158       -0.00918
C         -1.44928        2.61661       -0.01267
N         -1.72908        3.72601       -0.01269
C         -2.23439        0.32119       -0.01610
N         -3.50157        0.86707       -0.03886
H         -0.97236       -3.00139       -0.00316
H          0.97570        2.95316       -0.00439
H          3.33894        2.47246        0.00009
H          5.30830        0.35259        0.00158
H          2.52051       -2.91364       -0.00133
H         -4.31616        0.26503        0.02097
H         -3.62234        1.87318        0.01791
