26
Coordinates from ORCA-job ./opt_b97-3c_parallel
N          2.67980       -3.01857        0.38316
C          2.43614       -1.91499        0.22597
C          2.19383       -0.52163        0.02925
C          3.11918        0.48731       -0.05329
N          4.22259        0.59673       -0.02020
N          2.62227        1.72485       -0.22033
C          1.24103        1.56756       -0.25354
N          0.21793        2.49016       -0.44208
C         -1.09006        2.02975       -0.43531
C         -1.45904        0.66518       -0.15521
C         -2.87678        0.61054        0.13318
N         -3.62359        1.21988        0.67502
N         -3.30801       -0.38504       -0.08720
C         -3.19832       -1.47687       -0.25380
C         -2.05493       -2.19787       -0.05841
C         -0.76453       -1.73746       -0.05057
C         -0.41233       -0.33110       -0.09272
C          0.94588        0.17038       -0.09883
H          4.94683        1.31487       -0.08749
H          4.73204       -0.28249        0.09646
H         -1.76953        2.87985       -0.60748
H         -3.67981        1.95419        1.37853
H         -4.58134        0.90089        0.52669
H         -4.09554       -2.05130       -0.53259
H         -2.18481       -3.26971        0.07909
H          0.01838       -2.47867       -0.03376
