28
Coordinates from ORCA-job ./opt_b97-3c_parallel
N          5.09955       -0.08172        0.24479
C          3.97960       -0.29135        0.14793
C          2.55795       -0.57365        0.03702
C          2.32421       -1.92258       -0.19326
C          1.12205       -2.59332       -0.21855
C         -0.14883       -2.07534       -0.07873
C         -0.58247       -0.74697       -0.01552
C          0.19979        0.44763       -0.01623
C         -0.53567        1.67884       -0.15778
N          0.02185        2.89930       -0.44577
C         -1.93051        1.72911       -0.12962
C         -2.64821        0.56331        0.00369
N         -3.98968        0.42218        0.04785
C         -4.18749       -0.68305        0.12583
C         -3.03653       -1.55329        0.11652
C         -1.97940       -0.61295        0.03896
C          1.62154        0.48248        0.15196
N          2.19438        1.66805        0.55829
H          3.19736       -2.56532       -0.30280
H          1.18502       -3.67267       -0.33827
H         -0.90676       -2.85110       -0.08815
H         -0.58612        3.64206       -0.77231
H          0.99102        2.91855       -0.74658
H         -2.45905        2.67526       -0.23001
H         -5.23878       -0.93187        0.20789
H         -3.03453       -2.63306        0.21908
H          1.58057        2.39785        0.90505
H          3.14903        1.65378        0.90096
