28
Coordinates from ORCA-job ./opt_b97-3c_parallel
N          3.40918       -3.73749        0.44436
C          2.93602       -2.71040        0.29419
C          2.29347       -1.44622        0.10379
C          3.15654       -0.44454       -0.32122
C          2.97409        0.92292       -0.44936
C          1.86778        1.72808       -0.21136
N          2.10117        2.81037       -0.27075
C          0.54525        1.22944        0.06217
C         -0.51185        2.16877        0.36101
N         -0.92652        3.17166        0.56167
N         -1.86562        1.87063        0.45313
C         -2.15673        0.58445        0.16989
N         -3.41477        0.03652        0.11157
C         -3.24998       -1.29794       -0.25150
N         -4.05420       -2.04500       -0.38001
N         -1.89602       -1.58235       -0.42256
C         -1.20872       -0.41643       -0.16183
C          0.21575       -0.15423       -0.11134
C          0.89074       -1.32245        0.37207
H          4.18203       -0.75646       -0.51376
H          3.90083        1.43155       -0.71996
H          1.63680        3.66185       -0.58244
H          3.09923        2.98891       -0.39130
H         -1.35823        4.08735        0.43280
H          0.02779        3.35155        0.87568
H         -5.06569       -1.90599       -0.41622
H         -3.91894       -3.05615       -0.43158
H          0.38000       -2.21204        0.73145
