30
Coordinates from ORCA-job ./opt_b97-3c_parallel
N          4.34079        1.49758       -0.97498
C          3.40509        0.90720       -0.68650
C          2.21492        0.17437       -0.30688
C          2.47508       -1.11763        0.28835
N          3.48068       -1.37543        1.18012
N          1.97895       -2.10238        0.23366
C          0.95722       -2.23146       -0.16721
C         -0.26715       -1.46727       -0.11450
C         -1.48233       -2.17010       -0.02276
N         -1.52437       -3.53320        0.05594
N         -2.69136       -1.57396       -0.02554
C         -2.69673       -0.23132       -0.07218
C         -3.94128        0.49504        0.03377
C         -3.36535        1.80763        0.22824
C         -1.98412        1.83783        0.12523
C         -1.22800        2.99405        0.53888
N         -0.64433        3.91571        0.88067
C         -1.55011        0.54243       -0.11242
C         -0.27006       -0.05320       -0.22243
C          0.91309        0.67448       -0.51645
N          0.81570        1.86778       -1.18583
H          4.21768       -0.68953        1.30372
H          3.69252       -2.33739        1.42037
H          1.13300       -3.20034       -0.62058
H         -0.67327       -4.03180        0.29034
H         -2.40989       -3.97227        0.28169
H         -4.86473        0.13436        0.47426
H         -3.91882        2.70064        0.51020
H         -0.09261        2.29478       -1.32698
H          1.64745        2.43266       -1.32353
