30
Coordinates from ORCA-job ./opt_b97-3c_parallel
N         -4.65540        2.62841        0.11404
C         -3.80854        1.86536        0.04791
C         -2.71746        0.94078       -0.01131
C         -1.44382        1.45826       -0.03633
C         -0.71882        0.29344       -0.05307
C         -1.49603       -0.82200       -0.05209
C         -0.95953       -2.15502       -0.07129
N         -1.44823       -3.14428       -0.08919
C          0.42424       -2.23662       -0.04726
C          1.23642       -1.11093       -0.03116
N          2.60900       -1.37413        0.03417
C          3.50513       -0.31980        0.04174
N          4.43782       -0.90503        0.13833
N          3.74450        1.04339       -0.01017
C          2.58119        1.78980       -0.09792
N          2.79874        2.86946       -0.18121
N          1.37211        1.32355       -0.07835
C          0.66237        0.23409       -0.05983
C         -2.87535       -0.48811       -0.01754
N         -3.78661       -1.11239        0.01299
H         -1.17636        2.28179        0.62304
H         -2.39845       -2.87588       -0.34480
H         -1.36786       -4.13921       -0.29647
H          0.90398       -3.21601       -0.03689
H          4.52561       -1.91648        0.25240
H          5.38312       -0.54250        0.27023
H          2.07187        3.57507       -0.31027
H          3.68131        3.37755       -0.25936
H         -4.67715       -0.61703       -0.03846
H         -3.96756       -1.96423        0.54013
