29
Coordinates from ORCA-job ./opt_b97-3c_parallel
N          5.00913        3.32189       -0.23763
C          4.18754        2.53113       -0.16491
C          3.16591        1.52144       -0.08144
C          3.38278        0.15849       -0.02620
C          2.14965       -0.60124        0.03408
C          1.58548       -1.91600        0.11677
N          2.50239       -2.92640        0.23007
C          0.20080       -2.12068        0.08116
C         -0.31393       -3.47444        0.12850
N         -0.70710       -4.54684        0.16025
C         -0.68249       -1.02653        0.00738
N         -2.02045       -1.24115       -0.04625
C         -3.01253       -0.75732       -0.11189
C         -3.17471        0.67364       -0.19806
C         -4.58856        0.92361       -0.30647
N         -5.71010        1.13355       -0.38523
C         -2.09388        1.61559       -0.02557
N         -2.28312        2.88358        0.44275
N         -1.01736        1.36081       -0.03234
C         -0.18033        0.29414       -0.01335
C          1.20454        0.49823       -0.01020
C          1.81446        1.74186       -0.06806
H          4.39507       -0.23915       -0.03733
H          2.19148       -3.89131        0.18089
H          3.49020       -2.72224        0.12672
H         -3.62119       -1.54006       -0.55098
H         -1.49724        3.51330        0.55484
H         -3.22218        3.25889        0.52465
H          1.32209        2.71060       -0.11543
