30
Coordinates from ORCA-job ./opt_b97-3c_parallel
N         -5.32447       -0.65432       -0.01640
C         -4.20270       -0.43224       -0.03518
C         -2.77283       -0.15260       -0.04060
C         -2.39361        1.20224       -0.04004
N         -3.37770        2.16507       -0.04652
C         -1.10759        1.74005       -0.03295
C          0.15278        1.14344       -0.02500
N          1.16297        2.06219       -0.01145
C          2.45481        1.67594       -0.00418
C          2.77575        0.33208       -0.01485
C          4.01592       -0.28172       -0.01389
N          5.17621        0.43892        0.00679
C          3.86033       -1.71987       -0.04578
C          2.41682       -1.84881       -0.03173
C          1.78660       -0.60872       -0.02669
C          0.42381       -0.24563       -0.02989
C         -0.51550       -1.28173       -0.04231
C         -1.90984       -1.26440       -0.04566
N         -2.46048       -2.52557       -0.05645
H         -4.33992        1.88406        0.11035
H         -3.12290        3.12943        0.13157
H         -1.08184        2.83040       -0.03351
H          3.20764        2.46132        0.00716
H          5.13647        1.43573       -0.17385
H          6.05235       -0.04345       -0.16028
H          4.60911       -2.48494        0.13218
H          1.88681       -2.79559       -0.03334
H         -0.10497       -2.28495       -0.04984
H         -1.86462       -3.32669        0.11982
H         -3.45938       -2.62675        0.09520
