32
Coordinates from ORCA-job ./opt_b97-3c_parallel
N          4.98086        0.98846       -0.87630
C          3.92744        0.65621       -0.58088
C          2.58555        0.25243       -0.21216
C          2.53721       -1.06772        0.36947
N          3.34191       -1.48510        1.39471
N          1.83557       -1.90327        0.19730
C          0.80112       -1.77074       -0.16677
N          0.69626       -2.90764       -0.92185
C         -0.21222       -0.73935       -0.07242
C          0.10783        0.64896       -0.13904
C          1.45264        1.07504       -0.38245
N          1.71127        2.33131       -0.87995
C         -0.96707        1.58605        0.00515
N         -0.75880        2.93825        0.13316
C         -2.30034        1.14903        0.12435
C         -3.42001        2.05518        0.26511
N         -4.31054        2.76215        0.38491
C         -2.53173       -0.21211        0.12612
C         -3.72106       -0.96346        0.22791
C         -3.19357       -2.30668        0.19313
N         -2.07147       -2.38612        0.11239
C         -1.54829       -1.13853        0.05662
H          3.33802       -2.46528        1.65358
H          4.16787       -0.94327        1.62452
H         -0.23030       -3.20337       -1.21028
H          1.38625       -3.63897       -0.78954
H          2.63754        2.52629       -1.24544
H          0.93438        2.86793       -1.25218
H         -1.52730        3.51308        0.46341
H          0.18313        3.25659        0.33684
H         -4.75878       -0.65078        0.28414
H         -3.72010       -3.25332        0.22145
