28
Coordinates from ORCA-job ./opt_b97-3c_parallel
N         -5.34584       -0.29017        0.07417
C         -4.20467       -0.21870        0.07420
C         -2.76942       -0.10946        0.07136
C         -2.20082       -1.43658        0.03731
N         -1.11650       -1.65225        0.02374
C          0.10781       -1.07153        0.00632
C          1.26984       -1.87502       -0.00529
C          1.18860       -3.31746       -0.00639
N          1.14054       -4.45955       -0.01104
C          2.53961       -1.29611       -0.01925
C          2.62927        0.08627       -0.02700
C          3.76648        0.87035       -0.04438
C          3.41193        2.27423       -0.07005
C          1.96393        2.20327       -0.03515
N          1.13603        3.28966       -0.02909
C          1.51916        0.88395       -0.02049
C          0.22657        0.34028       -0.00268
N         -0.87065        1.13444        0.00281
C         -1.97481        1.09492        0.01409
N         -2.51258        2.34660       -0.07606
H         -2.69023       -2.39384        0.17591
H          3.43753       -1.91078       -0.02737
H          4.75181        0.41039       -0.04783
H          4.04518        3.12771        0.14956
H          1.52983        4.20556        0.15474
H          0.14996        3.14217        0.16009
H         -1.91672        3.13658       -0.29571
H         -3.51194        2.45141       -0.21489
