27
Coordinates from ORCA-job ./opt_b97-3c_parallel
N          1.57410       -3.07801       -0.88960
C          1.51005       -1.98883       -0.54643
C          1.45641       -0.59436       -0.13740
C          2.73463        0.00068        0.00003
N          3.86434       -0.78149       -0.09769
C          3.05091        1.33022        0.25130
C          2.21312        2.42382        0.27284
C          0.84551        2.46143        0.09452
C         -0.08152        1.42565       -0.00901
N         -1.34635        1.92751       -0.09900
C         -2.41588        1.11686       -0.10405
N         -3.64220        1.69921       -0.24457
C         -2.24507       -0.24483        0.04919
C         -3.24228       -1.25742        0.18456
N         -2.26069       -1.80330        0.28019
C         -1.19964       -2.17979        0.30777
C         -0.99855       -0.77633        0.08644
C          0.17818        0.02228       -0.00993
H          4.76065       -0.32454       -0.22015
H          3.76612       -1.72847       -0.44960
H          4.10347        1.56684        0.38524
H          2.69842        3.38717        0.42105
H          0.43697        3.47186        0.09615
H         -4.41801        1.10298       -0.50878
H         -3.66451        2.65843       -0.57235
H         -4.30410       -1.14236        0.36655
H         -0.61115       -2.87807        0.89246
