30
Coordinates from ORCA-job ./opt_b97-3c_parallel
N         -5.08475       -0.62424        1.07178
C         -4.01880       -0.34059        0.77371
C         -2.67604       -0.01643        0.35631
C         -2.43047        1.25228       -0.17047
N         -3.19447        2.02561       -0.39667
C         -1.14108        1.94685       -0.25447
C          0.12307        1.40083        0.00939
N          0.79642        2.27162        0.05343
C          0.40749       -0.01614       -0.01089
C         -0.53339       -0.94255       -0.35774
C         -0.07267       -1.99651       -1.11461
N          1.18584       -2.47024       -1.12954
C          2.11941       -1.73554       -0.50281
N          3.47318       -1.97461       -0.45541
C          4.03847       -0.85653        0.14533
C          3.03793        0.12856        0.45813
C          3.33581        1.35574        1.12487
N          3.61844        2.33028        1.64937
C          1.79749       -0.46204        0.03730
C         -1.63136       -1.00304        0.44909
N         -1.74207       -1.96971        0.98618
H         -3.21195        3.02315       -0.60435
H         -4.16774        1.72187       -0.38077
H         -1.20460        3.02442       -0.47621
H          0.58402        2.48822        1.02795
H          1.07226        3.15487       -0.37603
H         -0.67184       -2.75014       -1.64837
H          5.11106       -0.71777        0.35284
H         -2.63121       -2.33118        0.63928
H         -1.87365       -1.81418        1.98565
