26
Coordinates from ORCA-job ./opt_b97-3c_parallel
N          5.10013        0.90595       -0.02578
C          4.08209        0.38538       -0.04160
C          2.79917       -0.26687       -0.04573
C          2.58657       -1.62893       -0.17058
C          1.21610       -1.85473       -0.15443
C          0.56278       -0.62679       -0.00575
C          1.55604        0.34040        0.03536
C          1.26725        1.69264        0.11547
C         -0.07152        2.06419        0.12570
C         -1.09220        1.10437        0.08244
C         -2.43606        1.62147        0.11688
N         -3.46574        1.36165       -0.17927
C         -3.76358        0.31037       -0.32715
C         -3.20854       -0.98576       -0.04656
C         -1.84360       -1.26306        0.09055
N         -1.57555       -2.57972        0.33841
C         -0.81052       -0.28720        0.04678
H          3.35672       -2.38788       -0.28525
H          0.77116       -2.83521       -0.28160
H          2.05515        2.44153        0.14697
H         -0.32408        3.12114        0.17295
H         -2.76159        2.65627        0.11290
H         -4.75293        0.54978       -0.70006
H         -3.95611       -1.77318        0.02293
H         -0.67170       -2.80843        0.73583
H         -2.35247       -3.18495        0.57919
