31
Coordinates from ORCA-job ./opt_b97-3c_parallel
N         -3.38389        2.71114       -0.35026
C         -3.06347        1.62538       -0.20148
C         -2.71164        0.24970       -0.04574
C         -3.75300       -0.62739       -0.17449
N         -3.13780       -1.79829       -0.28076
C         -1.75612       -1.75146       -0.21057
N         -0.75228       -2.70782       -0.33544
C          0.56282       -2.27503       -0.25481
N          0.96392       -3.29322       -0.42562
C          0.90990       -0.89652        0.00361
C          2.32206       -0.67337        0.05516
N          2.96192       -1.17000        0.80999
C          2.84915        0.30680       -0.71609
C          2.64278        1.57088       -0.24812
N          3.54700        2.19481       -0.34581
C          1.45037        2.12441        0.36100
C          0.20842        1.47826        0.46034
N         -0.44253        2.26186        0.87639
C         -0.12317        0.11021        0.07150
C         -1.42751       -0.38143       -0.01099
H         -4.84147       -0.45975       -0.20553
H          1.02748       -4.30468       -0.29752
H          1.92777       -2.97671       -0.55295
H          3.73315       -0.50061        0.83443
H          3.02557       -1.68250        1.69068
H          3.56312        0.08049       -1.51020
H          3.20757        3.13506       -0.54926
H          4.51711        2.17422       -0.65969
H          1.58479        3.16357        0.68601
H         -0.78673        2.34969        1.83208
H         -0.39419        3.21392        0.51147
