34
Coordinates from ORCA-job ./opt_b97-3c_parallel
N         -3.49361       -2.84645       -0.29050
C         -2.86030       -1.89856       -0.20198
C         -2.06602       -0.68424       -0.08370
C         -2.68894        0.43089        0.48576
N         -3.93837        0.30734        1.04482
C         -2.27150        1.73852        0.28530
C         -1.04639        2.23536       -0.15582
N         -1.14530        3.55846       -0.50344
C          0.20251        1.55629       -0.12758
C          1.42029        2.31342       -0.05743
N          1.49695        3.67304        0.09751
C          2.67044        1.70354       -0.03201
C          2.72882        0.33359        0.01699
C          3.85294       -0.45045        0.19996
C          3.40988       -1.75245        0.34341
C          2.02442       -1.75679        0.23245
C          1.24569       -2.92370        0.57186
N          0.64315       -3.85659        0.84219
C          1.59163       -0.44120       -0.01945
C          0.30487        0.13351       -0.18281
C         -0.74824       -0.72176       -0.56686
N         -0.44322       -1.71413       -1.47209
H         -4.41122       -0.59009        1.01052
H         -4.48647        1.13968        1.23148
H         -3.03561        2.49167        0.48105
H         -2.06720        3.93819       -0.68784
H         -0.36293        3.97230       -1.00024
H          0.66006        4.16011        0.40195
H          2.39019        4.07710        0.35494
H          3.58399        2.29101        0.04224
H          4.87910       -0.10300        0.29359
H          4.03375       -2.61179        0.57854
H          0.52972       -1.88496       -1.69946
H         -1.10040       -2.47789       -1.59437
