28
Coordinates from ORCA-job ./opt_b97-3c_parallel
N         -4.94937       -2.15191        0.07818
C         -4.06003       -1.43429        0.05643
C         -2.93169       -0.54023        0.04672
C         -3.23495        0.84717        0.27917
N         -2.67990        1.80054        0.20081
C         -1.60329        1.93338       -0.00211
N         -1.69164        3.07615       -0.74900
C         -0.40710        1.12876        0.06416
C          0.82620        1.78548        0.20239
C          2.02982        1.07501        0.22151
C          3.27758        1.77788        0.38354
N          4.25841        2.34869        0.52095
C          1.98526       -0.31031        0.07889
N          3.01374       -1.18876        0.05777
C          2.56136       -2.21248       -0.06658
N          3.33440       -3.33178       -0.15385
C          1.12264       -2.30002       -0.14505
C          0.77903       -0.93500       -0.04468
C         -0.45356       -0.27870       -0.02892
C         -1.63297       -1.04169       -0.08252
H         -4.17948        1.29420        0.56789
H         -0.85477        3.50291       -1.13116
H         -2.55234        3.61241       -0.75944
H          0.84928        2.86984        0.29587
H          4.33573       -3.26646       -0.00737
H          2.90660       -4.25042       -0.17535
H          0.51124       -3.18627       -0.27999
H         -1.53987       -2.11958       -0.18998
