26
Coordinates from ORCA-job ./opt_b97-3c_parallel
N          2.98588       -3.14047        0.47555
C          2.17581       -2.35642        0.29082
C          1.17528       -1.33927        0.05873
C         -0.18704       -1.64940       -0.09795
N         -0.59855       -2.95662       -0.05618
C         -1.13019       -0.62810       -0.29694
C         -2.51658       -0.96231       -0.48763
N         -3.58314       -0.38093        0.07479
C         -3.64623        0.89040        0.51035
N         -2.85125        1.97143        0.14603
C         -1.63950        1.79282       -0.49380
C         -0.72353        0.70341       -0.29031
C          0.62608        0.97683       -0.09088
N          1.22201        2.13899       -0.13663
C          2.45555        1.71945       -0.10981
N          3.08626        2.62939       -0.17950
C          2.96482        0.44415       -0.11054
C          1.67558        0.01932       -0.00976
H         -1.58991       -3.16266        0.02422
H          0.05865       -3.67363        0.23597
H         -3.19870       -1.82329       -0.55558
H         -4.61664        1.13926        0.96777
H         -1.84274        2.86719       -0.36497
H          2.81778        3.61261       -0.12745
H          4.10051        2.62545       -0.29168
H          3.71597        0.12978        0.61266
