24
Coordinates from ORCA-job ./opt_b97-3c_parallel
N          2.15964        2.80972        0.00154
C          1.28936        1.75859        0.00476
N         -0.03011        2.05107        0.00025
C         -0.94983        1.04645        0.00238
N         -2.27714        1.34391        0.00179
C         -3.19857        0.71003        0.00255
N         -3.28251       -0.40940        0.01417
C         -2.59475       -1.29678        0.01977
N         -1.47694       -1.32383        0.01471
C         -0.55258       -0.32254        0.00660
C          0.82298       -0.58524        0.00993
C          1.54428       -1.77381        0.00921
N          0.96823       -3.01192       -0.02127
C          2.97462       -1.52671        0.03083
C          3.00579       -0.07704        0.01858
C          1.72300        0.43903        0.01226
H          3.13881        2.63449        0.19464
H          1.79399        3.73935        0.17541
H         -3.88843        1.29562       -0.58587
H         -2.99123       -2.11368        0.60364
H          1.54226       -3.83150        0.14248
H         -0.03624       -3.08717        0.10258
H          3.75455       -2.19815       -0.31303
H          3.86923        0.58348        0.01645
