31
Coordinates from ORCA-job ./opt_b97-3c_parallel
N          4.92165        1.96027        0.03427
C          3.96909        1.38437        0.29404
C          2.90340        0.45641        0.05673
C          2.56517       -0.94710        0.00332
N          3.78430       -1.56230       -0.12119
C          1.33489       -1.70566        0.05520
C          1.35026       -3.06257        0.52296
N          1.17046       -4.13990        0.18640
C          0.65322       -0.43752       -0.00227
C          1.48437        0.67417        0.00549
C          0.94969        1.95760       -0.03660
C         -0.42847        2.13277       -0.06131
N         -0.91951        3.40987       -0.09569
C         -1.28223        1.01985       -0.05345
C         -2.70608        1.25630       -0.04791
N         -3.69244        0.76171       -0.01244
C         -3.81008       -0.33220       -0.08334
N         -5.17248       -0.42246       -0.10196
C         -2.95909       -1.49000       -0.11933
C         -1.56358       -1.44514       -0.09308
C         -0.75117       -0.29077       -0.04690
H          3.83436       -2.56538        0.02301
H          4.62295       -1.01798        0.05353
H          1.60561        2.82602       -0.04167
H         -1.89874        3.54570       -0.32286
H         -0.27896        4.17180       -0.28916
H         -3.25272        2.06106        0.43202
H         -5.73692        0.40322        0.06382
H         -5.62149       -1.32982       -0.05151
H         -3.46316       -2.45284       -0.16113
H         -1.09484       -2.41965       -0.12512
