30
Coordinates from ORCA-job ./opt_b97-3c_parallel
N          5.38220       -1.10119       -0.39816
C          4.48071       -0.51629       -0.00712
C          3.06367       -0.34860        0.09055
C          2.81106        1.06313        0.04308
C          1.38121        1.16871        0.11539
C          0.48704        2.29828        0.11799
N          1.02733        3.55217        0.15156
C         -0.88962        2.14765        0.05341
C         -1.47763        0.88726        0.05895
C         -2.87770        0.86162        0.00582
C         -3.67604       -0.33584       -0.01652
N         -5.00021       -0.33653       -0.35083
N         -3.53688       -1.41562        0.15730
C         -2.56336       -1.89699        0.35529
C         -1.16940       -1.55479        0.27152
C         -0.65678       -0.25719        0.13715
C          0.79275       -0.14573        0.09570
C          1.85171       -1.11068       -0.03893
N          2.01577       -2.42900       -0.35816
H          3.39818        1.97309        0.15396
H          0.42675        4.35061       -0.02199
H          2.02587        3.66215        0.01495
H         -1.51706        3.03639        0.02018
H         -3.45211        1.78441       -0.04205
H         -5.54571       -1.18498       -0.24792
H         -5.49388        0.54026       -0.47129
H         -3.00932       -2.86995        0.52652
H         -0.52881       -2.42631        0.36576
H          1.21980       -2.94153       -0.72046
H          2.94430       -2.75368       -0.60567
