35
Coordinates from ORCA-job ./opt_b97-3c_parallel
N          6.13772       -1.31569        0.22856
C          5.04744       -0.98217        0.14524
C          3.66732       -0.54952        0.05519
C          3.47754        0.80774        0.26850
C          2.31596        1.56535        0.23337
C          0.96715        1.19471        0.06833
C          0.00895        2.23575        0.03124
C          0.37558        3.63997        0.10405
N          0.65660        4.74735        0.14910
C         -1.34731        1.95208       -0.13948
N         -2.30657        2.93162       -0.19377
C         -1.87653        0.61718       -0.16498
C         -3.21018        0.07384       -0.13283
N         -4.39641        0.70251       -0.40194
C         -3.05569       -1.33590        0.11038
C         -4.18215       -2.22081        0.14737
N         -5.00180       -2.99030        0.35399
C         -1.65632       -1.65672        0.21418
N         -1.33775       -2.89775        0.69696
C         -0.91944       -0.44618       -0.05393
C          0.50777       -0.13097       -0.08828
C          1.29749       -1.27131       -0.29769
C          2.67365       -1.48440       -0.25084
N          3.05011       -2.78304       -0.49212
H          4.37865        1.38801        0.46550
H          2.54918        2.61250        0.39179
H         -3.26783        2.66786       -0.00705
H         -2.03136        3.88462        0.02055
H         -4.37032        1.60947       -0.85484
H         -5.22648        0.13307       -0.52914
H         -2.08152       -3.51900        0.99817
H         -0.39142       -3.08136        1.01228
H          0.74475       -2.17437       -0.53762
H          2.37257       -3.43054       -0.87920
H          4.03637       -2.99485       -0.60489
