26
Coordinates from ORCA-job ./opt_b97-3c_parallel
N          5.28999       -0.13034       -0.00969
C          4.14861       -0.18080       -0.00116
C          2.70924       -0.22784        0.01003
C          2.27820       -1.60523        0.00152
N          1.24092       -1.99027       -0.00100
C         -0.02981       -1.53058       -0.00460
C         -1.08362       -2.45866       -0.00681
C         -2.41596       -2.04101       -0.00897
C         -2.66579       -0.67346       -0.01148
C         -3.91228        0.01576       -0.01174
N         -3.13417        0.84007       -0.00934
C         -2.23926        1.53464       -0.01741
N         -1.80034        2.82531       -0.03633
C         -1.66158        0.23061       -0.01219
C         -0.31529       -0.14596       -0.00619
N          0.66054        0.79116        0.00075
C          1.76238        0.86216        0.01037
N          2.12171        2.17840        0.07054
H          2.87782       -2.50768        0.00297
H         -0.86273       -3.52369       -0.00574
H         -3.22988       -2.76164       -0.00884
H         -4.91475       -0.39437        0.00687
H         -0.80979        3.01361        0.07230
H         -2.45520        3.58815        0.08881
H          1.42069        2.90056       -0.04712
H          3.09837        2.43843       -0.01478
