35
Coordinates from ORCA-job ./opt_b97-3c_parallel
N          5.33753        0.07914        0.88336
C          4.24226       -0.04208        0.57813
C          2.83953       -0.19575        0.20632
C          2.30878       -1.49051        0.31116
N          3.14751       -2.52444        0.66011
C          1.00686       -1.90988        0.05988
C         -0.18116       -1.17775       -0.10192
C         -1.38395       -1.91732       -0.23643
C         -1.41331       -3.36481       -0.36396
N         -1.43628       -4.50161       -0.47923
C         -2.61087       -1.26171       -0.33816
N         -3.80951       -1.90818       -0.50158
C         -2.76009        0.13823       -0.08860
C         -3.88734        0.92417        0.32688
C         -3.32004        2.14657        0.81197
C         -1.89118        2.14279        0.67645
N         -1.37596        3.31452        1.15252
C         -1.54793        0.88766        0.05281
C         -0.26140        0.22814       -0.19173
C          0.79965        1.08577       -0.56842
C          0.40863        2.29756       -1.27949
N          0.11713        3.24313       -1.85350
C          2.18486        0.92586       -0.33801
N          2.98880        2.01615       -0.62215
H          4.14751       -2.35356        0.69497
H          2.83141       -3.47948        0.53039
H          0.91731       -2.99002        0.11834
H         -4.66152       -1.40892       -0.27152
H         -3.82343       -2.92085       -0.43751
H         -4.91252        0.66861        0.58248
H         -3.90626        2.97237        1.20490
H         -0.43535        3.56435        0.86557
H         -2.01898        4.07763        1.33100
H          3.98033        1.98859       -0.40713
H          2.57742        2.88058       -0.95838
