30
Coordinates from ORCA-job ./opt_b97-3c_parallel
N         -5.53446       -1.11737       -0.41808
C         -4.43213       -0.82109       -0.35296
C         -3.03777       -0.46221       -0.25776
C         -2.08198       -1.46355       -0.43190
C         -0.68836       -1.33705       -0.37328
C          0.11088       -0.19314       -0.18172
C         -0.39554        1.11310       -0.07229
C          0.48140        2.19223       -0.06622
C          1.84890        2.00170       -0.16942
C          2.43790        0.69177       -0.16894
C          3.80224        0.26486       -0.05541
N          4.95893        0.98732       -0.11014
C          3.69405       -1.15701        0.10496
C          2.33327       -1.61606        0.12236
N          2.13343       -2.90393        0.53291
C          1.54587       -0.43759       -0.12070
N         -1.70674        1.38502       -0.00455
C         -2.68822        0.90265        0.02007
N         -3.51761        1.81816        0.60289
H         -2.45585       -2.46683       -0.62529
H         -0.16363       -2.27522       -0.52144
H          0.09139        3.20484       -0.01287
H          2.51681        2.85931       -0.18419
H          4.91718        1.94986       -0.42637
H          5.83907        0.49194       -0.20119
H          4.55252       -1.81004        0.22912
H          2.92021       -3.42521        0.90285
H          1.20358       -3.16987        0.83836
H         -4.51130        1.62308        0.66079
H         -3.21713        2.78251        0.68413
