30
Coordinates from ORCA-job ./opt_b97-3c_parallel
N         -5.80852       -1.49294        0.69417
C         -4.84878       -0.92400        0.44608
C         -3.62997       -0.20738        0.15279
C         -3.77482        1.14778       -0.08355
C         -2.77730        2.05629       -0.36899
C         -1.40328        1.87186       -0.37276
C         -0.61269        0.73095       -0.15726
C         -1.10812       -0.60064       -0.08185
C         -2.46294       -0.96565        0.09005
C         -0.18388       -1.68256       -0.14688
N         -0.61739       -2.98319       -0.28022
C          1.20344       -1.47578       -0.12702
C          2.11452       -2.60173       -0.18915
N          2.81650       -3.50318       -0.24595
C          1.66829       -0.16671       -0.03825
C          2.97698        0.30789        0.08743
C          4.21220       -0.42478        0.21606
N          5.19953       -0.98884        0.32934
C          2.91747        1.68302        0.15763
C          1.59177        2.06812        0.06750
C          1.23355        3.45525        0.23457
N          0.96775        4.55995        0.35813
C          0.79228        0.91235       -0.06650
H         -4.78629        1.55099       -0.06116
H         -3.11540        3.06944       -0.57560
H         -0.90579        2.78944       -0.63389
H         -2.67332       -2.01731        0.25874
H         -1.55603       -3.13771       -0.63168
H          0.07498       -3.69529       -0.48746
H          3.76641        2.34827        0.30212
