30
Coordinates from ORCA-job ./opt_b97-3c_parallel
N          5.93827       -1.01687       -0.01936
C          4.85677       -0.64782       -0.02628
C          3.49762       -0.17635       -0.02149
C          3.10502        1.15186       -0.00813
C          1.72085        1.15199       -0.00260
C          0.87204        2.23371        0.01175
C         -0.50025        1.99538        0.02150
C         -1.30320        3.19992        0.03146
N         -1.94355        4.14679        0.02992
C         -1.03909        0.67100        0.01634
C         -2.44562        0.57071        0.04069
C         -3.29483       -0.53216        0.03208
N         -4.63471       -0.25474        0.06211
C         -2.96075       -1.87632       -0.00412
C         -1.69797       -2.44486       -0.03333
N         -1.66395       -3.81263       -0.06178
C         -0.46647       -1.79787       -0.03372
C         -0.13788       -0.43268       -0.00994
C          1.24220       -0.13936       -0.01387
C          2.36123       -0.97620       -0.02564
H          3.75674        2.02270       -0.00100
H          1.27144        3.24638        0.01648
H         -3.01096        1.49583        0.07384
H         -5.29467       -0.99860       -0.13582
H         -4.93763        0.70291       -0.07936
H         -3.79751       -2.57431       -0.00791
H         -2.51838       -4.32429        0.13011
H         -0.78081       -4.28353        0.10022
H          0.36284       -2.49456       -0.06064
H          2.37941       -2.06241       -0.03267
