33
Coordinates from ORCA-job ./opt_b97-3c_parallel
N          3.32730       -2.54068        0.63853
C          2.71936       -1.34122        0.38988
C          3.55565       -0.23315        0.25158
C          3.10668        1.09158       -0.04833
N          3.91937        2.06312       -0.55347
N          2.08245        1.46895       -0.01380
C          0.80341        1.07217        0.03854
C         -0.16990        2.06270        0.06175
C         -1.51688        1.74841        0.15611
N         -2.44367        2.75037        0.21046
C         -1.98213        0.38535        0.12355
C         -3.29636       -0.18881        0.04492
N         -4.56488        0.25709        0.28532
C         -3.05244       -1.57533       -0.23711
C         -1.65198       -1.88913       -0.27327
N         -1.33609       -3.11900       -0.77729
C         -0.98506       -0.64938        0.02199
C          0.42132       -0.27742        0.10549
C          1.31938       -1.34757        0.28863
H          2.75459       -3.32082        0.94158
H          4.30800       -2.54365        0.89652
H          4.63394       -0.33959        0.35027
H          3.51217        2.92252       -0.90438
H          4.86718        1.83450       -0.83037
H          0.13313        3.10853        0.03891
H         -2.14430        3.70062        0.02155
H         -3.41505        2.51399        0.04149
H         -5.30754       -0.42619        0.38593
H         -4.67692        1.14895        0.75425
H         -3.84098       -2.30112       -0.41282
H         -0.39309       -3.26716       -1.12017
H         -2.07717       -3.68463       -1.17614
H          0.86926       -2.32975        0.40089
