30
Coordinates from ORCA-job ./opt_b97-3c_parallel
N         -5.39664        2.13763        0.10732
C         -4.37146        1.63572        0.04563
C         -3.07629        0.98872       -0.02055
C         -3.12775       -0.39830        0.08381
C         -2.11343       -1.35725        0.05859
C         -2.63573       -2.70738        0.17360
N         -3.06644       -3.76301        0.26508
C         -0.71682       -1.17667       -0.04551
N          0.03275       -2.31976       -0.04149
C          1.37694       -2.31250       -0.12157
C          2.10110       -1.13609       -0.19157
C          3.48345       -1.11067       -0.23231
C          4.10846        0.17898       -0.24796
C          5.51264        0.35270       -0.04763
N          6.13971        1.15207        0.47635
C          2.73634        0.57633       -0.04856
N          2.70077        1.83458        0.48759
C          1.38353        0.09787       -0.19560
C         -0.06294        0.07215       -0.15125
C         -0.61438        1.35038       -0.23056
C         -1.93496        1.78193       -0.18335
N         -2.08372        3.14229       -0.29764
H         -4.13586       -0.80133        0.19645
H          1.86251       -3.28681       -0.10892
H          4.05105       -2.03890       -0.22174
H          1.83146        2.16805        0.88883
H          3.56768        2.24037        0.82522
H          0.11423        2.15179       -0.34628
H         -3.01544        3.52160       -0.43304
H         -1.29390        3.69820       -0.60704
