28
Coordinates from ORCA-job ./opt_b97-3c_parallel
N         -3.97727        3.40742        0.09541
C         -3.46561        2.38620        0.06587
C         -2.83056        1.09046        0.03853
C         -3.68307       -0.00163        0.03739
C         -3.35932       -1.34643       -0.00110
C         -2.11336       -1.97050       -0.02005
N         -2.22851       -3.33686       -0.08549
C         -0.82855       -1.37973        0.01024
C          0.27693       -2.26987        0.04084
N          1.57713       -1.91006        0.05115
C          1.78764       -0.58965        0.02628
C          3.03078        0.08083        0.01442
C          4.34695       -0.47825        0.02552
N          5.48070       -0.56135        0.14557
C          2.49750        1.42510       -0.02379
N          3.31626        2.51650       -0.06951
N          1.38730        1.60436       -0.02447
C          0.82557        0.37217        0.00314
C         -0.53592        0.01110        0.00864
C         -1.44056        1.08330        0.01302
H         -4.75042        0.21352        0.05744
H         -4.22728       -2.00445       -0.01587
H         -1.41659       -3.87892       -0.35743
H         -3.13986       -3.73149       -0.29091
H          0.15561       -3.34953        0.06898
H          4.32392        2.40630       -0.03062
H          2.92479        3.45173       -0.06800
H         -1.00611        2.08090        0.01038
