30
Coordinates from ORCA-job ./opt_b97-3c_parallel
N         -5.63533       -0.84695        0.49297
C         -4.52532       -0.62146        0.34532
C         -3.11931       -0.35061        0.16716
C         -2.73862        0.97695        0.22335
C         -1.48313        1.54565        0.03023
C         -1.55502        2.99787        0.06616
N         -1.63212        4.13804        0.10070
C         -0.22106        0.91536       -0.10467
N          0.81735        1.80125       -0.21493
C          2.10199        1.41886       -0.23333
N          3.02713        2.41134       -0.37750
C          2.41973        0.08326       -0.06695
C          3.64556       -0.53974        0.12867
N          4.83139        0.12826        0.25329
C          3.50250       -1.96352        0.32390
C          2.05805       -2.04991        0.27603
C          1.41754       -0.84510       -0.01205
C          0.04193       -0.49146       -0.11728
C         -0.93232       -1.51147       -0.28016
C         -0.55878       -2.82074       -0.77183
N         -0.29346       -3.85699       -1.17684
C         -2.31699       -1.43483       -0.13852
H         -3.55638        1.67677        0.40547
H          2.69488        3.32045       -0.67940
H          3.96220        2.14116       -0.66148
H          4.79085        1.12705        0.42516
H          5.62008       -0.37589        0.64326
H          4.16291       -2.61177        0.89086
H          1.55190       -2.95814        0.58414
H         -2.86214       -2.37253       -0.26628
