30
Coordinates from ORCA-job ./opt_b97-3c_parallel
N          5.12050        0.49397       -0.67524
C          4.01043        0.33867       -0.44842
C          2.59133        0.13205       -0.16998
C          2.16713       -1.20212       -0.11609
N          3.10057       -2.20146       -0.27995
C          0.88817       -1.69201        0.11705
C         -0.36627       -1.06084        0.16237
C         -1.49120       -1.93946        0.26075
C         -1.40623       -3.36730        0.48749
N         -1.34436       -4.49190        0.68213
C         -2.79465       -1.47655        0.13628
C         -2.98411       -0.13437       -0.09543
C         -4.22467        0.52441       -0.34418
N         -3.43264        1.32004       -0.41905
C         -2.53593        1.99796       -0.44460
C         -1.94610        0.73437       -0.10221
C         -0.58873        0.34564        0.09239
C          0.40263        1.35561        0.26424
C         -0.06099        2.65196        0.74499
N         -0.39863        3.67327        1.13498
C          1.81138        1.27019        0.11355
N          2.52284        2.45540        0.22206
H          2.78429       -3.15546       -0.41583
H          4.03226       -1.95604       -0.59972
H          0.89371       -2.77539        0.17383
H         -3.64622       -2.15330        0.17981
H         -5.22173        0.10218       -0.38710
H         -2.16202        2.77586       -1.10037
H          3.53403        2.41371        0.29725
H          2.05445        3.27824        0.58745
