23
Coordinates from ORCA-job ./opt_b97-3c_parallel
N          5.11839       -0.76412        0.00208
C          4.07740       -0.29462       -0.01697
C          2.79164        0.32923       -0.02688
C          2.45179        1.65751       -0.01546
N          1.12884        1.86994       -0.01504
C          0.60118        0.58866       -0.02879
C          1.58691       -0.40077       -0.03809
N          1.34931       -1.76100       -0.04520
C          0.00076       -2.11649       -0.04211
C         -1.01468       -1.16897       -0.02641
C         -2.31490       -1.76055       -0.01422
N         -3.60803       -1.28241        0.01611
C         -3.87429        0.03198        0.03472
N         -3.10253        1.18583        0.01848
C         -1.72110        1.27515       -0.00912
N         -1.89926        2.36684       -0.00577
C         -0.77610        0.19097       -0.02118
H          3.31692        2.33874       -0.00499
H          0.19515       -3.20037       -0.05059
H         -2.63194       -2.81504       -0.01736
H         -4.97354       -0.03326        0.06039
H         -2.32965        3.28692       -0.09271
H         -0.89004        2.53073       -0.00119
