32
Coordinates from ORCA-job ./opt_b97-3c_parallel
N          5.64256       -2.33476        0.45315
C          4.61080       -1.84877        0.37556
C          3.30228       -1.25068        0.26652
C          2.17811       -2.06175        0.42928
C          0.82908       -1.68459        0.37365
C          0.24235       -0.41420        0.19714
C          0.97592        0.78237        0.09518
N          2.31748        0.77805        0.02565
C          3.21412        0.15534       -0.00534
N          4.12099        0.87022       -0.73491
C          0.29971        2.00710        0.09508
C          1.00397        3.26808        0.02473
N          1.54713        4.27201       -0.03292
C         -1.08159        2.04692        0.20239
C         -1.89469        0.86256        0.21258
C         -3.31797        0.68140        0.14550
N         -4.16204        1.75666        0.18893
C         -3.46846       -0.74851        0.10231
C         -4.80872       -1.25292        0.08120
N         -5.65174       -1.76327       -0.49927
C         -2.20906       -1.42530       -0.06150
N         -2.20540       -2.71221       -0.52431
C         -1.21535       -0.40495        0.14834
H          2.36409       -3.11796        0.61409
H          0.14828       -2.51740        0.51506
H          3.99124        1.86991       -0.84484
H          5.05560        0.49881       -0.86620
H         -1.60381        3.00098        0.23084
H         -3.78190        2.68852        0.06719
H         -5.14704        1.61012       -0.00601
H         -3.08375       -3.12129       -0.82623
H         -1.34601       -3.09056       -0.90690
