27
Coordinates from ORCA-job ./opt_b97-3c_parallel
N         -3.83423        1.29807       -0.30464
C         -2.80615        0.46191        0.02537
C         -1.43872        0.90276        0.09074
C         -0.32622        0.05338        0.04227
C         -0.38172       -1.36450       -0.03370
C         -1.58570       -2.07717       -0.00823
C         -2.89204       -1.49192        0.12935
N         -3.35709       -0.49038        0.10423
N          0.75283       -2.11578       -0.11934
C          1.96279       -1.51097       -0.12358
N          3.06192       -2.31384       -0.21743
C          2.06215       -0.12683       -0.02631
C          3.20707        0.72100       -0.00221
N          2.33193        1.43891        0.07461
C          1.34836        1.99439        0.16164
N          1.08323        3.31900        0.34543
C          0.94917        0.62898        0.05866
H         -3.63471        2.23596       -0.63360
H         -4.75158        0.91146       -0.49748
H         -1.32745        1.98231        0.14739
H         -1.59021       -3.16419       -0.05613
H         -3.80982       -1.96385        0.46020
H          2.93935       -3.31370       -0.10274
H          3.97534       -1.91700       -0.02954
H          4.23951        0.46998       -0.21080
H          0.15197        3.60285        0.62729
H          1.84819        3.95726        0.53209
