27
Coordinates from ORCA-job ./opt_b97-3c_parallel
N         -5.34418       -0.86417       -0.78148
C         -4.27434       -0.54388       -0.54284
C         -2.95397       -0.11050       -0.20701
C         -2.22521       -1.14147        0.31493
C         -0.91013       -1.14855        0.48728
C         -0.01751       -0.15936        0.15758
C         -0.26667        1.27993        0.17804
N         -1.49432        1.83114        0.14781
C         -2.70489        1.29049       -0.07038
N          0.76659        2.21999        0.16427
C          2.08097        1.80547        0.05982
N          2.82373        2.62346        0.08336
C          2.42092        0.44204       -0.19713
C          3.45892       -0.56245       -0.28712
C          3.21078       -1.90751       -0.36823
C          1.86176       -1.85053       -0.18582
N          1.53987       -2.90688       -0.23912
C          1.37717       -0.51839       -0.04302
H         -2.75907       -2.02304        0.67346
H         -0.51983       -2.03034        0.98920
H         -3.46723        2.06176       -0.26139
H          3.81180        2.37666        0.15662
H          2.79934        3.64426        0.09458
H          4.49746       -0.24668       -0.26250
H          3.85290       -2.60674        0.17342
H          0.73203       -3.31174       -0.71143
H          2.18775       -3.68157       -0.09135
