25
Coordinates from ORCA-job ./opt_b97-3c_parallel
N         -0.92772       -3.98530        0.00396
C         -0.38592       -2.97897        0.00324
C          0.28439       -1.69908        0.00331
C          1.68038       -1.73071        0.00423
C          2.36623       -0.52662        0.00486
C          3.77374       -0.30713        0.00625
N          3.31210        0.72613        0.00589
C          2.71153        1.68531        0.00561
C          1.71852        0.65807        0.00427
C          0.31918        0.74846        0.00307
C         -0.25504        2.02735        0.00221
C         -1.66580        2.30499        0.00100
N         -2.60911        1.73283        0.00158
C         -2.70699        0.63544        0.00274
N         -4.06514        0.48746        0.00658
C         -1.82427       -0.50123        0.00214
C         -0.41905       -0.46801        0.00280
H          2.22208       -2.67408        0.00459
H          4.57352       -1.03817       -0.00215
H          2.59771        2.76213       -0.00544
H          0.34436        2.93433        0.00217
H         -2.16093        3.26957       -0.00047
H         -4.67629        1.29567        0.00393
H         -4.47900       -0.43875        0.00552
H         -2.39937       -1.42394        0.00191
