27
Coordinates from ORCA-job ./opt_b97-3c_parallel
N          5.24427       -0.22260        0.50116
C          4.11487       -0.17178        0.34431
C          2.70001       -0.05579        0.11398
C          2.36734        1.24580       -0.23222
N          2.75710        2.26756       -0.43264
N          1.21449        1.94297       -0.33849
C         -0.06223        1.40002       -0.17273
C         -0.41662        0.00639       -0.08065
C          0.44299       -1.05906       -0.20034
C         -0.23604       -2.21757       -0.54024
N         -1.54467       -2.53219       -0.49665
C         -2.37303       -1.52625       -0.17695
N         -3.75000       -1.51744       -0.12696
C         -4.12149       -0.19291        0.10294
C         -2.96045        0.65898        0.17127
C         -2.96533        2.07027        0.37766
N         -2.91316        3.20015        0.53463
C         -1.85075       -0.22364        0.00315
C          1.73904       -1.13211        0.24498
N          2.12581       -2.08621        0.66427
H          2.78450        3.28799       -0.37732
H          3.73010        1.99453       -0.59002
H         -0.22178        2.48988       -0.21385
H         -0.01418       -3.26235       -0.81112
H         -5.19272        0.05186        0.18136
H          1.80968       -2.77074        1.35208
H          3.12096       -2.27526        0.53333
