25
Coordinates from ORCA-job ./opt_b97-3c_parallel
N          1.68784       -3.45804       -0.45265
C          1.64431       -2.32880       -0.27395
C          1.64907       -0.89941       -0.06906
C          2.97395       -0.41452       -0.06021
C          3.43787        0.89701        0.04835
C          2.64804        2.08353        0.15572
N          1.56826        1.96042        0.07583
C          0.42507        1.27604       -0.00170
N         -0.71677        2.01211       -0.06931
C         -1.91550        1.40670       -0.10237
N         -3.02040        2.20345       -0.18332
C         -1.99711        0.03042       -0.02043
C         -3.12808       -0.76650        0.03717
C         -2.68891       -2.07149        0.16891
C         -1.29989       -2.06556        0.18141
C         -0.85315       -0.74624        0.04237
C          0.43491       -0.14718        0.00019
H          3.76997       -1.15309       -0.15201
H          4.50568        1.10169        0.03624
H          2.96258        3.08848        0.41041
H         -3.94624        1.79540       -0.12562
H         -2.91487        3.21204       -0.16324
H         -4.16213       -0.43197        0.01402
H         -3.32250       -2.94936        0.26976
H         -0.71406       -2.96366        0.32479
