28
Coordinates from ORCA-job ./opt_b97-3c_parallel
N         -5.63753        1.54551        0.01321
C         -4.53902        1.23057        0.00895
C         -3.14853        0.84683        0.00142
C         -2.22831        1.88165       -0.03663
C         -0.84507        1.81050       -0.05744
C          0.00533        0.69941       -0.03576
C         -0.34660       -0.67924        0.01338
N          0.64876       -1.62389        0.03823
C          1.95336       -1.29018        0.01135
N          2.86308       -2.30621        0.04380
C          2.32655        0.04126       -0.04682
C          3.62340        0.63055       -0.09783
N          4.98167        0.51699       -0.14173
N          2.91293        1.51150       -0.11457
C          2.06139        2.25619       -0.13230
C          1.38070        1.00032       -0.06727
C         -1.66371       -1.19619        0.03686
C         -1.85068       -2.63603        0.07144
N         -2.01814       -3.76680        0.09705
C         -2.88292       -0.51527        0.02984
H         -2.63589        2.89164       -0.05636
H         -0.37757        2.78994       -0.09378
H          2.53467       -3.23742        0.27328
H          3.83196       -2.07959        0.23838
H          5.39995       -0.39350       -0.29193
H          5.54484        1.33681       -0.33710
H          1.92418        3.13830        0.48041
H         -3.77259       -1.14690        0.05245
