30
Coordinates from ORCA-job ./opt_b97-3c_parallel
N          0.44501        4.35481        0.27362
C          0.48147        3.21518        0.20717
C          0.48983        1.78171        0.10589
C          1.76156        1.07925        0.01174
N          2.72995        1.54474       -0.26281
C          1.77297       -0.35928        0.08373
C          2.86940       -1.18635        0.11409
N          3.97541       -1.26103        0.11070
N          2.35447       -2.48710        0.15770
C          0.95290       -2.44767        0.14432
N          0.86837       -3.55267        0.18795
C          0.61671       -1.05435        0.08393
C         -0.69437       -0.44202        0.03486
C         -1.87623       -1.30201       -0.02639
C         -3.21081       -0.89589       -0.11884
N         -4.17308       -1.43801       -0.20256
N         -3.88882        0.27139       -0.15355
C         -3.14157        1.42313       -0.04772
N         -1.88207        1.62936        0.09524
C         -0.75263        1.01187        0.06307
H          3.17711        2.10660        0.46536
H          2.55966        2.19657       -1.03214
H          4.87746       -1.72401        0.24328
H          4.20781       -0.30534       -0.17235
H          0.63422       -4.04168        1.05537
H          1.14821       -4.29458       -0.46014
H         -1.68628       -2.37023       -0.03000
H         -4.51527       -1.90956       -1.04222
H         -4.98866       -1.37361        0.41163
H         -3.61451        2.41896       -0.05797
