28
Coordinates from ORCA-job ./opt_b97-3c_parallel
N         -5.88053        0.07067        0.27324
C         -4.76115       -0.13174        0.16216
C         -3.34579       -0.38000        0.03862
C         -2.95715       -1.70659       -0.00422
C         -1.68043       -2.22517       -0.12870
C         -0.43288       -1.59855       -0.15427
N          0.56673       -2.52487       -0.21182
C          1.85902       -2.15569       -0.17874
C          2.18672       -0.82197       -0.05081
C          3.48110       -0.24870        0.11063
N          4.78961       -0.63403        0.11289
N          2.76877        0.62223        0.20853
C          1.90614        1.34606        0.28370
N          2.36972        2.59404        0.58477
C          1.21889        0.12355       -0.01011
C         -0.16271       -0.19861       -0.10407
C         -1.13609        0.83487       -0.15656
C         -0.75316        2.21139       -0.39030
N         -0.49191        3.30555       -0.59477
C         -2.52834        0.73531       -0.07876
H         -3.75190       -2.44882        0.05321
H         -1.66464       -3.31419       -0.16863
H          2.60756       -2.94471       -0.20489
H          5.51220        0.03074        0.36625
H          5.03000       -1.61768        0.07506
H          3.36359        2.78981        0.55421
H          1.72280        3.37525        0.61629
H         -3.07318        1.68012       -0.10598
