26
Coordinates from ORCA-job ./opt_b97-3c_parallel
N          5.45474       -0.86169       -0.00578
C          4.35803       -0.53577        0.01835
C          2.97419       -0.13562        0.03709
C          2.72117        1.22714       -0.06127
C          1.50307        1.89487       -0.05515
C          0.19835        1.39553        0.00819
C         -0.79667        2.39445       -0.01936
C         -2.15462        2.08714        0.00276
C         -2.50753        0.74845        0.03543
C         -3.81007        0.17031        0.01906
N         -3.11155       -0.71973        0.03449
C         -2.26946       -1.47283        0.00795
N         -2.27648       -2.82081       -0.19972
C         -1.57209       -0.22654        0.06452
C         -0.18966        0.03686        0.07657
C          0.65394       -1.07661        0.16256
C          2.03921       -1.15560        0.15581
H          3.59404        1.87240       -0.14503
H          1.60324        2.97573       -0.12621
H         -0.51762        3.44499       -0.06466
H         -2.90948        2.86905       -0.02391
H         -4.77241        0.66486        0.07137
H         -1.41998       -3.26602       -0.50971
H         -3.14932       -3.27673       -0.43835
H          0.18109       -2.04810        0.26111
H          2.43756       -2.16562        0.24265
