31
Coordinates from ORCA-job ./opt_b97-3c_parallel
N          1.62675        3.87711        0.25400
C          1.01387        2.91607        0.17500
C          0.29736        1.67250        0.06963
C         -1.14890        1.66495       -0.02605
N         -1.76497        2.56948       -0.19590
C         -1.81348        0.39400        0.03742
C         -3.15393        0.10748        0.04441
N         -4.12844        0.62620        0.03401
C         -3.21855       -1.26444        0.07195
C         -2.02173       -1.86407        0.05819
N         -1.96283       -3.19935        0.19461
C         -1.12603       -0.82958       -0.00332
C          0.26330       -0.85001       -0.09204
C          0.94812       -2.13189       -0.27031
C          2.31418       -2.38298       -0.28031
N          3.46017       -1.69453       -0.11234
C          3.32419       -0.33832        0.03245
N          4.27249        0.19772        0.19635
N          2.29806        0.42795       -0.03549
C          1.00867        0.40301       -0.02325
H         -1.63466        3.57436       -0.30864
H         -2.64009        2.44642        0.31350
H         -5.11838        0.38423        0.03838
H         -4.01262        1.36574       -0.65703
H         -4.15398       -1.81958        0.15618
H         -1.23995       -3.62286        0.77227
H         -2.82079       -3.72661        0.35515
H          0.33052       -3.00192       -0.42615
H          2.57738       -3.44213       -0.42407
H          4.47957        1.16425        0.44640
H          5.14822       -0.31594        0.28440
