27
Coordinates from ORCA-job ./opt_b97-3c_parallel
N          1.58869       -3.32586        0.52843
C          1.81906       -2.21428        0.39828
C          2.13170       -0.81561        0.24027
C          3.41328       -0.29424        0.33138
C          3.46329        1.15050        0.20047
C          2.04351        1.38616        0.06694
N          1.53551        2.62796       -0.04801
C          0.18965        2.71878       -0.15642
C         -0.67814        1.61507       -0.16779
C         -2.05254        1.88871       -0.25462
C         -3.07942        0.95004       -0.13669
C         -2.86009       -0.43619        0.18276
N         -3.78285       -1.18653        0.85208
N         -1.98959       -1.09832        0.00951
C         -0.93756       -0.86232       -0.24189
N         -0.78650       -1.72271       -1.29636
C         -0.12199        0.32040       -0.08742
C          1.26890        0.24473        0.06506
H          4.26371       -0.95038        0.50185
H          4.19128        1.81191        0.66014
H         -0.19509        3.73489       -0.22331
H         -2.35753        2.92405       -0.39049
H         -4.11525        1.27225       -0.21236
H         -4.70258       -0.80691        1.04595
H         -3.64153       -2.18505        0.95549
H          0.11507       -1.77594       -1.75624
H         -1.37424       -2.54774       -1.33860
