29
Coordinates from ORCA-job ./opt_b97-3c_parallel
N          0.19549        4.27770       -0.04489
C          0.44074        3.16110       -0.04399
C          0.75997        1.74925       -0.02904
C          2.12723        1.48135       -0.01923
C          2.53321        0.16766       -0.00011
C          3.82458       -0.32879        0.00994
C          3.72190       -1.71032        0.02802
C          2.37299       -2.04651        0.03002
C          1.62544       -0.86585        0.01217
C          0.23183       -0.64768        0.00554
C         -0.56072       -1.80652        0.02385
C         -1.94149       -1.97357        0.02292
N         -2.39522       -3.26449        0.04237
C         -2.91879       -0.99254        0.00373
C         -2.75281        0.38271       -0.02413
N         -3.90810        1.11655       -0.04166
C         -1.56685        1.11215       -0.03646
C         -0.21639        0.70469       -0.01957
H          2.86248        2.28406       -0.02624
H          4.74417        0.25179        0.00359
H          4.55317       -2.41087        0.03888
H          2.00185       -3.06691        0.04241
H         -0.03330       -2.75256        0.04407
H         -3.37555       -3.43842       -0.15036
H         -1.73616       -4.01622       -0.12658
H         -3.94899       -1.34739        0.00904
H         -3.85219        2.11800        0.10878
H         -4.78572        0.65166        0.16256
H         -1.76529        2.17825       -0.06363
