25
Coordinates from ORCA-job ./opt_b97-3c_parallel
N          5.51685       -0.37122        0.01667
C          4.39456       -0.15397        0.00873
C          2.97606        0.09449        0.00100
C          2.56844        1.47479        0.02132
N          1.60846        2.02013       -0.00128
C          0.58472        1.60800       -0.01241
C         -0.04765        0.31291       -0.00555
C          0.68188       -0.89566       -0.01040
C         -0.01941       -2.11566       -0.00966
C         -1.41552       -2.15606       -0.00027
C         -2.11917       -0.95970        0.00903
N         -3.45953       -0.78984        0.02283
C         -3.61794        0.32514        0.03050
N         -4.88656        0.82306        0.05531
C         -2.46024        1.19172        0.01923
C         -1.43894        0.21956        0.00530
C          2.08342       -0.98057       -0.01207
H          3.19507        2.35722        0.09347
H          0.13598        2.58030       -0.18209
H          0.52574       -3.05593       -0.01380
H         -1.94095       -3.10815        0.00223
H         -5.04366        1.81143        0.21386
H         -5.66707        0.18758        0.18257
H         -2.42302        2.27577        0.02803
H          2.52408       -1.97600       -0.01923
