30
Coordinates from ORCA-job ./opt_b97-3c_parallel
N         -5.47859       -0.24512        1.08040
C         -4.45805       -0.32873        0.57556
C         -3.16148       -0.45117       -0.02032
C         -2.85570       -1.33350       -1.00059
C         -1.52480       -1.22475       -0.66774
C         -0.75869       -2.44556       -0.61694
N          0.56205       -2.35944       -0.36381
C          1.21328       -1.18735       -0.22704
N          2.48429       -1.26596        0.01722
C          2.99514       -0.49270        0.92468
N          3.63246       -1.23690        1.43287
C          3.41358        0.61869        0.24776
C          2.56025        1.46180       -0.34581
N          3.05915        2.47996       -1.07628
C          1.18190        1.29607       -0.26600
C          0.45354        2.53607       -0.23599
N         -0.15053        3.50567       -0.23983
C          0.44385        0.03667       -0.30213
C         -0.92628       -0.02163       -0.34183
C         -2.03448        0.30529        0.38140
N         -1.93655        1.07297        1.17117
H         -3.35451       -2.30012       -1.05016
H         -0.95288       -3.51974       -0.76240
H          3.98996       -2.19072        1.38494
H          4.35517       -0.68456        1.89315
H          4.48526        0.79681        0.14898
H          4.00727        2.81646       -0.90840
H          2.48287        3.29899       -1.27344
H         -1.76627        2.03144        0.86494
H         -2.82237        1.09209        1.67662
