31
Coordinates from ORCA-job ./opt_b97-3c_parallel
N          4.52716       -2.10100       -0.27732
C          3.95626       -1.11607       -0.17954
C          2.79675       -0.27948       -0.18660
C          2.57349        1.14933       -0.21363
N          3.61305        2.03335       -0.22404
N          1.53277        1.57502       -0.20356
C          0.71864        0.49589       -0.14045
C          1.43729       -0.65532       -0.12845
C          0.85200       -1.90373       -0.07600
C         -0.53939       -1.98268       -0.01646
N         -1.03405       -3.25879       -0.06465
C         -1.34989       -0.80463        0.00503
C         -2.77159       -0.87243        0.12567
N         -3.41917       -2.00784        0.53593
C         -3.64594        0.19368       -0.11417
C         -3.25752        1.47921       -0.62509
N         -2.38130        2.10879       -0.39128
C         -1.40511        1.70789       -0.06785
N         -1.05773        2.80447        0.67563
C         -0.68139        0.45262       -0.07686
H          4.55744        1.69954       -0.06652
H          3.42729        3.01994       -0.08239
H          1.46747       -2.80098       -0.09624
H         -2.00971       -3.37483       -0.31798
H         -0.39815       -4.00857       -0.31224
H         -4.39153       -1.93172        0.81277
H         -2.86385       -2.73328        0.97726
H         -4.72067        0.08813        0.02352
H         -3.88845        2.26173       -1.03001
H         -0.10048        2.87602        1.00317
H         -1.55507        3.67444        0.52156
