28
Coordinates from ORCA-job ./opt_b97-3c_parallel
N         -1.74160        2.92834        1.10841
C         -1.70234        1.84710        0.74642
C         -1.59834        0.50397        0.26501
C         -2.83283       -0.06777       -0.05328
N         -3.92865        0.10933       -0.12002
N         -3.19156       -1.32596       -0.39378
C         -2.24532       -2.30423       -0.13359
N         -1.12704       -2.33391        0.51425
C         -0.14104       -1.54740        0.19137
C          1.15400       -2.19231        0.00799
C          2.40968       -1.46163        0.04688
N          3.49097       -2.12953        0.54482
C          2.09368       -0.12073       -0.35464
C          3.07707        0.89859       -0.21116
N          2.54023        2.17001       -0.31141
C          1.22524        1.91279       -0.43279
N          1.06497        3.00193       -0.56630
C          0.82611        0.52037       -0.40056
C         -0.32836       -0.16722        0.00073
H         -4.15255        0.92423        0.45292
H         -4.83284       -0.22080       -0.46579
H         -2.59218       -3.30427       -0.44037
H          1.18650       -3.26636       -0.16167
H          4.41487       -1.71146        0.48972
H          3.43749       -3.13546        0.67837
H          4.15575        0.77552       -0.01869
H          0.49850        3.60158        0.03688
H          1.53226        3.64093       -1.21384
