31
Coordinates from ORCA-job ./opt_b97-3c_parallel
N         -5.71588       -2.05037       -0.49253
C         -4.69485       -1.55712       -0.35118
C         -3.39886       -0.94726       -0.17696
C         -3.34851        0.42956       -0.29422
C         -2.27388        1.29379       -0.10467
C         -2.69140        2.68243       -0.21875
N         -3.03645        3.76765       -0.31985
C         -0.90232        0.99546        0.09001
N         -0.11684        2.10984        0.21531
C          1.22123        2.05396        0.27598
N          1.87079        3.24101        0.45067
C          1.85996        0.83639        0.12658
C          3.20402        0.53133       -0.03949
N          4.18741        1.47343       -0.15879
C          3.43175       -0.88556       -0.22164
C          4.51415       -1.75887       -0.54981
N          5.58783       -1.91281       -0.91014
C          2.04607       -1.31656       -0.19607
C          1.11867       -0.30790        0.06493
C         -0.30297       -0.30282        0.14265
C         -1.00097       -1.52662        0.32071
C         -0.32208       -2.69202        0.84469
N          0.18845       -3.62034        1.27402
C         -2.36227       -1.79229        0.17451
H         -4.30592        0.90187       -0.52228
H          2.82817        3.20391        0.78331
H          1.31402        4.03844        0.73831
H          5.08687        1.17017       -0.51749
H          3.90285        2.42351       -0.37152
H          1.78350       -2.33052       -0.47886
H         -2.66541       -2.82885        0.33553
