29
Coordinates from ORCA-job ./opt_b97-3c_parallel
N         -4.25664       -2.22227       -0.09583
C         -3.24446       -1.69186       -0.07230
C         -1.97081       -1.00617       -0.04895
C         -0.75503       -1.70058       -0.04963
N         -0.75857       -3.07387       -0.07913
C          0.46775       -0.99923       -0.02386
C          1.68115       -1.78067        0.01334
N          2.78455       -1.75165        0.00319
C          3.32899       -0.79739       -0.08607
N          4.60711       -1.26940       -0.17794
C          3.02230        0.60660       -0.07932
C          1.73026        1.13557       -0.04454
C          0.51279        0.41907       -0.02087
C         -0.73074        1.09207       -0.00496
C         -1.08776        2.45243        0.02978
C         -0.26473        3.63315        0.08205
N          0.37173        4.58196        0.12587
C         -2.47334        2.54216        0.03254
C         -2.99495        1.26299       -0.00005
C         -1.92355        0.38191       -0.01984
H         -1.63343       -3.55089       -0.27094
H          0.10373       -3.55612       -0.30786
H          1.86539       -2.71366        0.53637
H          4.79420       -2.25449       -0.02846
H          5.38836       -0.62389       -0.15667
H          3.87623        1.27959       -0.10601
H          1.71838        2.21199       -0.05452
H         -3.05208        3.46248        0.06163
H         -4.05160        1.00501       -0.00322
