31
Coordinates from ORCA-job ./opt_b97-3c_parallel
N         -3.70388        2.86722        0.84267
C         -2.99100        2.01082        0.58594
C         -2.07613        0.93949        0.25011
C         -2.73083       -0.23318       -0.28321
N         -3.70956       -0.20276       -1.24038
N         -2.53660       -1.31760       -0.19359
C         -1.56649       -1.75165        0.10723
N         -1.98116       -2.83736        0.82820
C         -0.18332       -1.35667       -0.01647
C          0.74925       -2.37639       -0.26189
C          2.11045       -2.10292       -0.35454
C          2.53218       -0.79088       -0.21021
N          3.80016       -0.33895       -0.31121
C          3.74277        0.77632       -0.19069
N          4.84734        1.56630       -0.31159
C          2.44351        1.35634        0.04302
C          1.62196        0.20030        0.03519
C          0.23107       -0.00881        0.14028
C         -0.67786        1.05164        0.40021
N         -0.20316        2.26034        0.84306
H         -4.19195       -1.06163       -1.48029
H         -4.18204        0.67264       -1.43746
H         -1.29984       -3.51209        1.15651
H         -2.95155       -3.12744        0.77766
H          0.41273       -3.40371       -0.37968
H          2.82552       -2.89907       -0.54864
H          5.71699        1.15636       -0.63362
H          4.74120        2.57190       -0.38172
H          2.21029        2.41220        0.12140
H         -0.87395        2.93795        1.19133
H          0.73287        2.29166        1.23036
