31
Coordinates from ORCA-job ./opt_b97-3c_parallel
N         -4.05835        1.69914        0.28690
C         -3.21771        0.62911        0.15279
C         -3.82562       -0.61050        0.00259
C         -3.22215       -1.85075       -0.13507
C         -1.87084       -2.17085       -0.14746
C         -0.74731       -1.34830       -0.05419
N          0.42545       -2.03256       -0.08397
C          1.62027       -1.41468        0.00782
N          2.69098       -2.26068       -0.03523
C          1.73322       -0.02326        0.10934
C          2.90638        0.72308        0.21641
N          4.17301        0.21453        0.31871
C          2.75896        2.14686        0.23856
C          1.36766        1.89325       -0.03562
N          0.76143        3.00866       -0.54304
C          0.51766        0.73500        0.09140
C         -0.75641        0.05476        0.06626
C         -1.85501        0.91032        0.17112
H         -5.04181        1.52546        0.46280
H         -3.67110        2.58592        0.59029
H         -4.91407       -0.62217       -0.00507
H         -3.90273       -2.69272       -0.23662
H         -1.67028       -3.23640       -0.24964
H          3.59627       -1.86848       -0.26606
H          2.51918       -3.22719       -0.28813
H          4.27206       -0.75628        0.59308
H          4.92155        0.84918        0.57419
H          3.40104        2.84166       -0.29472
H          1.33830        3.79167       -0.82973
H         -0.15698        2.91315       -0.96281
H         -1.61074        1.96425        0.28722
