25
Coordinates from ORCA-job ./opt_b97-3c_parallel
N          0.54643        3.97057       -0.04641
C          0.25169        2.86583       -0.04570
C         -0.14001        1.47096       -0.03746
C         -1.50133        1.14304       -0.05287
N         -2.50825        2.07019       -0.09493
C         -1.94772       -0.21980       -0.03044
C         -3.10111       -1.09952       -0.01945
C         -2.76346       -2.43954       -0.00848
C         -1.39698       -2.52378       -0.00745
C         -0.90620       -1.22810       -0.01690
C          0.45425       -0.89988       -0.00962
N          1.38476       -1.88467        0.00375
C          2.46974       -2.09770        0.01245
C          3.42074       -1.01476        0.01349
C          3.19463        0.40829        0.01222
N          2.15562        0.78419       -0.00288
C          0.83869        0.45866       -0.01541
H         -2.28142        3.04986        0.04095
H         -3.46412        1.76758        0.05579
H         -4.14601       -0.79939       -0.01884
H         -3.45792       -3.27606        0.00058
H         -0.81440       -3.44200        0.00303
H          2.65986       -3.16363       -0.01114
H          4.48923       -1.21412       -0.00266
H          3.92236        1.21090        0.00560
