35
Coordinates from ORCA-job ./opt_b97-3c_parallel
N         -5.68252       -1.27449       -0.10486
C         -4.61705       -0.86380       -0.07544
C         -3.26034       -0.39628       -0.03751
C         -2.97177        0.95109       -0.03268
N         -3.86471        1.92985       -0.27217
C         -1.59741        0.95021        0.06253
C         -0.69865        1.97815        0.19492
N         -1.29681        3.10112        0.64604
C          0.65418        1.75011        0.06657
C          1.40980        2.97216        0.11812
N          2.03199        3.92684        0.20072
C          1.25087        0.41609        0.00626
C          2.64014        0.24916       -0.12893
C          3.73827        1.15890       -0.33778
N          4.30454        1.52986       -1.25866
C          3.45961       -0.89835       -0.11524
N          4.39199       -1.51555       -0.16197
N          3.10024       -2.23051        0.12385
C          1.77607       -2.61279        0.24979
N          1.41985       -3.63462        0.47344
N          0.72014       -1.92390        0.01700
C          0.32515       -0.69836        0.05197
C         -1.08329       -0.37491        0.04157
C         -2.15256       -1.31480       -0.01568
N         -2.15457       -2.42431       -0.03716
H         -4.80364        1.71047       -0.60437
H         -3.57484        2.81357       -0.68895
H         -0.77175        3.87391        1.05518
H         -2.24959        3.10049        1.01091
H          5.23444       -1.96495        0.20502
H          4.74629       -0.83072       -0.83733
H          0.44961       -3.85649        0.70535
H          1.92943       -4.51206        0.58710
H         -3.09229       -2.42560        0.36734
H         -2.15709       -3.17914       -0.72307
