30
Coordinates from ORCA-job ./opt_b97-3c_parallel
N         -5.13684        0.12482        0.03934
C         -4.06262       -0.26586        0.02087
C         -2.70393       -0.77802       -0.00487
C         -2.64751       -2.11289       -0.36878
C         -1.56843       -2.96816       -0.31920
C         -0.23508       -2.69992       -0.04008
N          0.49853       -3.85881        0.02393
C          0.40037       -1.44009        0.08073
C          1.81915       -1.48092        0.11226
C          2.61809       -0.34588        0.14277
C          4.05524       -0.47429        0.12698
N          5.19197       -0.59331        0.11311
C          2.00008        0.88886        0.11195
N          2.60755        2.09158        0.03418
C          1.76319        2.82299       -0.04284
C          0.39621        2.35584       -0.00996
C         -0.30164        3.58171       -0.25884
N         -1.17080        4.16351       -0.71932
C          0.63604        0.95695        0.13601
C         -0.23678       -0.16514        0.16695
C         -1.63031        0.07547        0.31551
N         -2.01263        1.27165        0.87643
H         -3.59082       -2.59275       -0.62749
H         -1.82442       -4.00861       -0.51657
H         -0.00190       -4.73915        0.08080
H          1.42199       -3.82379        0.44028
H          2.36515       -2.41889        0.07460
H          2.17662        3.81788       -0.17712
H         -2.98407        1.39067        1.14534
H         -1.32009        1.81649        1.37739
