25
Coordinates from ORCA-job ./opt_b97-3c_parallel
N          4.16465       -0.29838        0.16210
C          2.81827       -0.49827        0.07777
N          2.08441       -1.36178        0.06965
C          1.21373       -2.08723        0.08238
C          0.57791       -0.80986        0.03878
C          1.54136        0.13316        0.02945
C          1.20312        1.48221       -0.01235
N          2.14646        2.46735       -0.03824
N         -0.09290        1.86610       -0.03198
C         -1.07968        0.92552       -0.01334
C         -2.38793        1.42060       -0.01924
C         -3.58033        0.61734        0.01782
N         -3.86560       -0.44811        0.00863
C         -3.15445       -1.29029       -0.00606
C         -1.73084       -1.49118        0.02331
C         -0.77842       -0.46418        0.01550
H          4.77132       -1.08465        0.36479
H          4.51277        0.63109        0.36792
H          0.82730       -3.05546       -0.21099
H          3.10215        2.20842       -0.25406
H          1.84683        3.40935       -0.26188
H         -2.57768        2.49156       -0.03503
H         -4.60558        0.94638        0.14311
H         -3.93702       -2.03536       -0.09550
H         -1.44651       -2.53955        0.04568
