29
Coordinates from ORCA-job ./opt_b97-3c_parallel
N          4.96687       -0.78482        0.03388
C          3.85410       -0.52464       -0.00702
C          2.43527       -0.19266       -0.03852
C          2.10769        1.17564       -0.03901
N          3.12601        2.10063       -0.03101
C          0.84302        1.76137       -0.04852
C         -0.43651        1.20185       -0.04101
C         -1.46904        2.16466       -0.03233
C         -2.81499        1.81569       -0.01242
C         -3.12121        0.47087       -0.00125
C         -4.36880       -0.12705        0.02737
C         -4.15752       -1.49766        0.03274
C         -2.78704       -1.72983        0.00584
C         -2.13614       -0.49514       -0.01551
C         -0.76399       -0.17244       -0.03860
C          0.13864       -1.24125       -0.06068
C          1.53330       -1.27306       -0.06203
N          2.03877       -2.55262       -0.08580
H          4.07552        1.78160        0.13215
H          2.90738        3.07190        0.16026
H          0.86481        2.85077       -0.05433
H         -1.23099        3.22629       -0.03748
H         -3.59435        2.57388       -0.00225
H         -5.33087        0.37911        0.04636
H         -4.93177       -2.26046        0.05691
H         -2.33262       -2.71624        0.00723
H         -0.30760       -2.22953       -0.07785
H          1.41409       -3.33442        0.07621
H          3.03314       -2.69130        0.06231
