29
Coordinates from ORCA-job ./opt_b97-3c_parallel
N          4.98217       -1.60653       -0.01434
C          3.90212       -1.37546        0.28204
C          2.83478       -0.47039       -0.00992
C          2.62456        0.95498        0.04709
N          3.73001        1.75283       -0.06408
C          1.43653        1.76518        0.11320
C          0.64544        0.56495        0.07672
C          1.40456       -0.59404       -0.03501
N          0.87508       -1.82371       -0.18416
C         -0.46698       -1.90604       -0.21723
C         -1.31417       -0.80220       -0.09164
C         -2.73438       -1.06276       -0.08726
N         -3.31149       -2.08782        0.61186
N         -3.65269       -0.55376       -0.42608
C         -3.72823        0.53745       -0.58104
C         -2.97984        1.65207       -0.06473
C         -1.60395        1.64218        0.19469
N         -1.11680        2.84864        0.61853
C         -0.77080        0.49615        0.05989
H          3.60839        2.74152       -0.25255
H          4.61347        1.32192       -0.31811
H          1.25164        2.64524       -0.49553
H         -0.86700       -2.91144       -0.33457
H         -4.30316       -2.27228        0.50894
H         -2.73084       -2.80656        1.02854
H         -4.67442        0.54659       -1.10930
H         -3.57517        2.55333        0.06647
H         -0.21094        2.86598        1.07356
H         -1.78184        3.56966        0.87617
