33
Coordinates from ORCA-job ./opt_b97-3c_parallel
N          2.81819       -4.05977        0.36602
C          2.50215       -2.97290        0.20034
C          2.11703       -1.58978       -0.00199
C          3.08288       -0.84907       -0.65939
C          3.14247        0.51794       -0.82437
C          2.25454        1.50876       -0.41629
N          2.78141        2.74427       -0.69596
C          0.91529        1.35746        0.04259
C          0.13662        2.51705        0.35160
N          0.63890        3.75631        0.64141
N         -1.20106        2.52782        0.48086
C         -1.83989        1.36902        0.31142
C         -3.27079        1.36178        0.29787
C         -3.20438       -0.04253       -0.02094
N         -4.50734       -0.40980       -0.22452
C         -2.07384       -0.93923       -0.09227
C         -2.08583       -1.98514       -1.07123
N         -2.21496       -3.12201       -1.06716
C         -1.18426        0.16524        0.18177
C          0.23516        0.10957        0.17326
C          0.84255       -1.15360        0.39559
N          0.14045       -2.05481        1.16740
H          3.96066       -1.38734       -1.01494
H          4.06442        0.85405       -1.29815
H          2.14917        3.53655       -0.73979
H          3.63304        2.79457       -1.24373
H          1.62253        3.81820        0.88310
H          0.01193        4.42958        1.06723
H         -3.88524        2.11006       -0.19468
H         -5.20116        0.31535       -0.36942
H         -4.68792       -1.32323       -0.62881
H          0.52344       -2.97604        1.35311
H         -0.76574       -1.80741        1.54908
