33
Coordinates from ORCA-job ./opt_b97-3c_parallel
N         -4.55376        1.82831       -0.19635
C         -3.50115        1.39396       -0.08587
C         -2.15864        0.86041        0.04519
C         -1.02120        1.68661        0.08091
N         -1.27694        3.02591       -0.10949
C          0.31027        1.15046        0.18147
C          1.41938        2.04598        0.23682
N          1.28372        3.34455        0.65987
C          2.72878        1.80775       -0.17842
C          3.37327        0.60958       -0.42384
N          4.65145        0.67344       -0.90547
C          2.92881       -0.62307        0.00946
C          1.65690       -0.98444        0.43358
N          1.64784       -2.21931        1.02713
C          0.44944       -0.27091        0.24753
C         -0.73652       -1.03381        0.15729
C         -0.95737       -2.43227       -0.00674
C         -0.66834       -3.81227       -0.26084
N          0.01883       -4.60190       -0.72105
C         -2.39614       -2.42326       -0.13842
N         -2.94857       -1.45014       -0.09342
C         -1.98751       -0.51189        0.05125
H         -0.50414        3.62840       -0.37274
H         -2.21103        3.30707       -0.38892
H          0.43999        3.59165        1.16693
H          2.12479        3.87158        0.86805
H          3.35630        2.69066       -0.30439
H          5.08256       -0.18943       -1.21938
H          4.94385        1.52959       -1.36374
H          3.68200       -1.41106        0.02337
H          2.53588       -2.62982        1.29503
H          0.83114       -2.48835        1.56463
H         -3.09957       -3.22624       -0.33456
