29
Coordinates from ORCA-job ./opt_b97-3c_parallel
N          2.82261        3.02042        0.47371
C          2.70957        1.89990        0.27742
C          2.58999        0.48149        0.04815
C          3.65842       -0.37480        0.25913
C          3.30132       -1.77669        0.24811
C          1.87402       -1.59770        0.11329
N          1.04164       -2.63981        0.28660
C         -0.27724       -2.35925        0.24733
C         -0.79858       -1.08353       -0.00474
C         -2.23649       -0.95674       -0.07656
N         -3.04145       -1.83295       -0.75085
N         -2.92712       -0.15013        0.23373
C         -2.72534        0.93651        0.28293
N         -3.53613        1.51203        1.21789
C         -1.74578        1.68576       -0.46119
C         -0.42253        1.26951       -0.64603
N          0.34148        2.11420       -1.40162
C          0.07443        0.00891       -0.22984
C          1.44973       -0.29485       -0.08970
H          4.64233        0.01897        0.50470
H          3.80342       -2.56387        0.80126
H         -0.93583       -3.21162        0.40308
H         -4.04882       -1.73041       -0.69932
H         -2.66341       -2.70753       -1.09643
H         -4.28188        0.97029        1.63981
H         -3.55137        2.51990        1.32602
H         -2.09350        2.63750       -0.85800
H          0.01487        3.05977       -1.56782
H          1.32959        1.92042       -1.51747
