28
Coordinates from ORCA-job ./opt_b97-3c_parallel
N          5.99050        1.12659        0.00576
C          4.89842        0.79087        0.00155
C          3.52778        0.35286       -0.00429
C          3.10640       -0.97059       -0.02073
C          1.72100       -0.94263       -0.02294
C          0.80293       -1.97823       -0.04319
N          1.17857       -3.28848       -0.07944
N         -0.52022       -1.71492       -0.03985
C         -0.98811       -0.42846       -0.02117
C         -2.39033       -0.26151       -0.01758
C         -3.28852       -1.39961       -0.03138
N         -4.00872       -2.28795       -0.03925
C         -3.05003        1.02869       -0.00277
N         -4.40690        1.22457        0.05727
N         -2.82251        2.10790       -0.00973
C         -1.79747        2.51487       -0.00526
C         -0.44819        2.02339        0.00138
C         -0.07909        0.67118       -0.00826
C          1.28722        0.36349       -0.00735
C          2.41143        1.18355        0.00322
H          3.73980       -1.85397       -0.03042
H          2.15170       -3.53371        0.06192
H          0.47086       -4.00513        0.03927
H         -5.03587        0.43039        0.00375
H         -4.79808        2.15695       -0.01684
H         -2.14059        3.54336       -0.00430
H          0.27954        2.82962        0.00865
H          2.43121        2.27035        0.01402
