30
Coordinates from ORCA-job ./opt_b97-3c_parallel
N          4.38342        2.09998        0.40807
C          3.64456        1.23230        0.30544
C          2.69610        0.13437        0.16124
C          3.23748       -1.08225       -0.29368
N          4.56239       -1.14650       -0.65526
C          2.60920       -2.31908       -0.29623
C          1.29106       -2.63258       -0.02133
C          0.19736       -1.78510        0.13391
C         -1.02603       -2.47366        0.19716
N         -2.23672       -1.88951        0.25346
C         -2.24413       -0.54970        0.20718
C         -3.49887        0.16517        0.11195
C         -4.89570       -0.08028       -0.05503
N         -5.97295       -0.46022       -0.01910
C         -2.92262        1.46308       -0.17088
C         -1.53957        1.49671       -0.13605
C         -0.80226        2.64052       -0.61784
N         -0.23334        3.55725       -0.99504
C         -1.09315        0.21417        0.14846
C          0.19980       -0.37395        0.21699
C          1.34471        0.41423        0.47522
N          1.13107        1.54574        1.23005
H          4.92402       -1.99668       -1.07338
H          5.08233       -0.28429       -0.78361
H          3.23408       -3.17828       -0.53554
H          1.08185       -3.70074       -0.04274
H         -1.06364       -3.56210        0.17990
H         -3.48708        2.34305       -0.47376
H          0.18295        1.84524        1.42483
H          1.88042        2.22300        1.32925
