25
Coordinates from ORCA-job ./opt_b97-3c_parallel
N          4.44757       -0.60800       -0.02693
C          3.13407       -0.23270       -0.01651
C          2.06389       -1.19509       -0.02836
C          0.69844       -0.89131       -0.01535
N         -0.13905       -1.96747       -0.02721
C         -1.47784       -1.77846       -0.01732
C         -2.00854       -0.49618        0.00485
C         -3.36762       -0.07381        0.01382
N         -4.53431       -0.77923       -0.01335
N         -2.76660        0.88752        0.03420
C         -2.02404        1.74304        0.04635
C         -1.19713        0.58011        0.01981
C          0.19670        0.43886        0.00899
C          0.98898        1.59464        0.02017
C          2.42669        1.60200        0.00573
N          3.24837        0.86445        0.00020
H          4.69301       -1.58637        0.07515
H          5.17499        0.08561        0.10363
H          2.39212       -2.23215       -0.04869
H         -2.10459       -2.66733       -0.02733
H         -4.51259       -1.77957       -0.17541
H         -5.41310       -0.29232       -0.14794
H         -1.74689        2.78847       -0.01842
H          0.55409        2.59035        0.03809
H          3.09597        2.45438       -0.01897
