31
Coordinates from ORCA-job ./opt_b97-3c_parallel
N          4.46088        2.27839        0.14044
C          3.68575        1.59351       -0.34742
C          2.65773        0.65352       -0.01241
C          2.40557       -0.76597       -0.04623
N          3.62723       -1.38631       -0.01841
C          1.19158       -1.55067       -0.05968
C          1.10701       -2.54162        0.97344
N          1.22634       -3.67864        0.96070
C          0.44115       -0.32060       -0.13004
C          1.23118        0.81677       -0.02408
C          0.65335        2.07458        0.08229
C         -0.72850        2.19724        0.10944
N         -1.26345        3.45160        0.23193
C         -1.54199        1.06018       -0.00669
C         -2.97271        1.26213        0.00113
N         -3.86360        0.73736        0.38685
C         -3.93001       -0.36190        0.45301
C         -3.17514       -1.41516       -0.17147
C         -1.79801       -1.36694       -0.41520
N         -1.30280       -2.50784       -0.98665
C         -0.97510       -0.22922       -0.17705
H          4.44018       -0.83205        0.23102
H          3.65191       -2.37678        0.20298
H          1.27884        2.96159        0.16428
H         -0.65023        4.22969        0.44839
H         -2.25086        3.54469        0.44424
H         -3.54434        2.09027       -0.40309
H         -4.82889       -0.44514        1.05324
H         -3.75897       -2.30555       -0.39535
H         -1.95439       -3.21808       -1.30186
H         -0.38447       -2.48280       -1.41533
