28
Coordinates from ORCA-job ./opt_b97-3c_parallel
N         -4.19655       -2.50924        0.10659
C         -3.45148       -1.64349        0.07015
C         -2.52483       -0.53527        0.02809
C         -3.22985        0.70632        0.20905
N         -3.03784        1.78970        0.12693
C         -2.07085        2.20584       -0.20285
C         -0.69593        1.77971       -0.21392
C          0.17314        2.91203       -0.42531
N          0.85112        3.81370       -0.60780
C         -0.25738        0.44534       -0.13461
C         -1.12855       -0.67352       -0.08342
N         -0.63900       -1.93976       -0.15284
C          0.68578       -2.17162       -0.22771
C          1.62829       -1.15011       -0.19446
C          2.99718       -1.37439       -0.16289
N          3.54771       -2.62655       -0.20190
C          3.82346       -0.21703       -0.00759
C          2.55769        0.44424        0.19509
N          2.80627        1.58266        0.91122
C          1.17202        0.20871       -0.13891
H         -4.09125        0.90246        0.83883
H         -2.46742        3.20461       -0.05098
H          0.97495       -3.21975       -0.26921
H          4.52578       -2.73652        0.04296
H          2.93990       -3.43316       -0.11470
H          4.68138       -0.14294        0.65533
H          2.08386        2.29495        0.94469
H          3.76748        1.89139        1.00672
