30
Coordinates from ORCA-job ./opt_b97-3c_parallel
N          4.83227       -2.35561       -0.25348
C          3.96840       -1.61433       -0.14830
C          2.86963       -0.68703       -0.00084
C          3.32661        0.55254        0.57175
N          3.01228        1.60415        0.44128
C          2.01298        1.89347        0.07497
N          2.34365        3.02855       -0.61314
C          0.68985        1.31616        0.07185
C         -0.38415        2.19573        0.22979
N         -1.67268        1.81145        0.20312
C         -1.91094        0.49772        0.02790
C         -3.27570        0.05120        0.02197
C         -4.54969        0.66970       -0.17191
N         -5.65519        0.59244        0.11017
C         -2.74979       -1.28828       -0.06481
N         -3.60456       -2.35163        0.03121
C         -1.40927       -1.80245       -0.16560
C         -0.90966       -0.45498       -0.12032
C          0.45527       -0.06794       -0.11351
C          1.52434       -0.99386       -0.28507
N          1.28922       -2.25595       -0.77061
H          4.21293        0.73922        1.16767
H          3.26333        3.43897       -0.49372
H          1.61487        3.60202       -1.02275
H         -0.22140        3.26245        0.37249
H         -3.22288       -3.27736        0.19040
H         -4.56501       -2.17613        0.30877
H         -1.03220       -2.63521        0.42124
H          0.40668       -2.43437       -1.23676
H          2.08713       -2.81669       -1.05184
