29
Coordinates from ORCA-job ./opt_b97-3c_parallel
N          2.00948        4.14866       -0.32224
C          1.51108        3.12266       -0.24879
C          0.89508        1.81706       -0.16000
C         -0.49509        1.65135       -0.17140
N         -1.30302        2.75733       -0.27899
C         -1.06251        0.36169       -0.07307
C         -2.50408        0.25088        0.02670
N         -3.22936        0.82379        1.03862
N         -3.29929       -0.43583       -0.31216
C         -3.16456       -1.49599       -0.59444
C         -2.13500       -2.44007       -0.25469
C         -0.79933       -2.10212       -0.02295
C         -0.24877       -0.80127       -0.02152
C          1.14935       -0.59925        0.02216
C          2.24533       -1.47625        0.10789
C          2.28599       -2.91299        0.20290
N          2.33958       -4.05244        0.28083
C          3.41150       -0.72317        0.09745
C          3.06884        0.61212       -0.00023
C          1.68377        0.67933       -0.04625
H         -2.29017        2.61899       -0.46906
H         -0.88479        3.64659       -0.53098
H         -2.81981        1.58625        1.56694
H         -4.23978        0.74091        1.03644
H         -4.19262       -1.69150       -0.87644
H         -2.44424       -3.48244       -0.24502
H         -0.16237       -2.95816        0.12499
H          4.42443       -1.11484        0.15381
H          3.76362        1.44842       -0.03593
