27
Coordinates from ORCA-job ./opt_b97-3c_parallel
N         -4.44227        1.06766       -0.05551
C         -3.25719        0.38484       -0.04237
C         -3.35731       -0.99891       -0.03461
C         -2.33322       -1.92963       -0.02013
C         -0.96108       -1.72212       -0.01049
C         -0.22774       -0.52886       -0.01352
C         -0.74751        0.79287       -0.02678
C         -2.09820        1.15801       -0.03983
N          0.08342        1.87664       -0.02812
C          1.42403        1.72698       -0.01911
C          1.98125        0.46203       -0.00940
C          3.31173        0.07864       -0.00356
N          4.33025        0.98845       -0.01543
C          3.41080       -1.36415        0.00564
C          2.01469       -1.75079        0.00716
C          1.17691       -0.64080       -0.00474
H         -4.43199        2.06673        0.11836
H         -5.30057        0.55966        0.12709
H         -4.36262       -1.41628       -0.04075
H         -2.64929       -2.97033       -0.01603
H         -0.40463       -2.65142        0.00016
H         -2.27938        2.23310       -0.05024
H          2.02414        2.63455       -0.01965
H          5.27272        0.65629       -0.18858
H          4.11829        1.95492       -0.23563
H          4.29500       -1.99124        0.05366
H          1.65612       -2.77510        0.01385
