30
Coordinates from ORCA-job ./opt_b97-3c_parallel
N         -4.75924       -0.94525        0.54503
C         -3.69873       -0.63804        0.44382
C         -2.47244       -1.24194        0.30389
C         -1.36886       -0.24145        0.21455
C         -2.11905        0.95481        0.29163
N         -3.47086        0.73109        0.42774
N         -1.41302        2.14843        0.19520
C         -0.01866        2.08549        0.04510
N         -0.00576        3.19749        0.04546
C          0.69045        0.80059       -0.00630
C          2.12405        1.05006       -0.09834
N          2.97723        1.74672       -0.16768
N          3.13839        0.08718       -0.02859
C          2.84180       -1.25560        0.13937
N          3.81021       -1.78168        0.20755
N          1.78377       -1.99601        0.24177
C          0.58766       -1.70818       -0.16200
N          0.30452       -2.45869       -0.92041
C          0.09479       -0.44661        0.03255
H         -5.09882       -1.90866        0.61193
H         -5.61219       -0.38042        0.58403
H         -2.39011       -2.32793        0.27065
H         -0.23893        3.89484       -0.66896
H          0.49140        3.73807        0.76015
H          3.75843        2.04681        0.41861
H          3.20480        2.06578       -1.11068
H          4.74466       -1.36967        0.24025
H          3.96450       -2.78690        0.30621
H          0.04135       -2.53475       -1.90397
H          0.53346       -3.41048       -0.62702
