27
Coordinates from ORCA-job ./opt_b97-3c_parallel
N          4.81446       -1.00668        0.20808
C          3.76199       -0.68312        0.11289
C          2.41620       -0.88129        0.02743
C          1.06300       -0.25893       -0.04430
C          2.03044        0.81185        0.05924
C          1.52941        2.16110        0.13818
C          0.09210        2.25657        0.13352
C         -0.90057        1.21639        0.06378
C         -2.25829        1.71283        0.15874
N         -3.41185        0.95056        0.15214
C         -3.25580       -0.39367       -0.03158
N         -4.33248       -0.64423        0.03672
N         -2.50150       -1.52392       -0.23868
C         -1.11934       -1.38438       -0.28455
N         -0.98889       -2.47433       -0.45147
C         -0.38562       -0.13913       -0.09702
N          3.39854        0.64565        0.14103
H          5.24905       -1.89113        0.47994
H          5.58932       -0.34388        0.13715
H          2.01801       -1.89497        0.02994
H          2.21061        3.00284        0.23197
H          0.01369        3.31181       -0.12408
H         -2.70828        2.71042        0.28716
H         -5.10618        0.02352        0.00040
H         -4.77428       -1.52706        0.29754
H         -0.67664       -2.71804       -1.39498
H         -1.19598       -3.37325       -0.00739
