25
Coordinates from ORCA-job ./opt_b97-3c_parallel
N          3.13568        2.65031       -0.06989
C          2.78957        1.56114       -0.07322
C          2.38943        0.18886       -0.05360
C          3.22074       -0.90131       -0.04766
C          2.51903       -2.03509        0.00077
C          1.20218       -1.70818        0.02429
C          0.01969       -2.50874        0.09508
C         -1.20483       -1.89473        0.09532
N         -2.12751       -2.85571       -0.09237
C         -1.40023       -0.53318        0.07659
C         -2.78032       -0.07705        0.12391
N         -3.25535        1.17841        0.08407
C         -2.48428        2.25564        0.01738
N         -1.24590        2.58236       -0.01578
C         -0.23005        1.79379       -0.01835
C         -0.23855        0.35615        0.01492
C          1.04494       -0.30600       -0.01156
H          4.30643       -0.84898       -0.08226
H          2.92900       -3.04163        0.01016
H          0.14824       -3.58767        0.14661
H         -1.84687       -3.78560       -0.39748
H         -3.01502       -2.63239       -0.53858
H         -3.79258       -0.50457        0.17471
H         -3.20867        3.08331       -0.01579
H          0.17114        2.81776       -0.05508
