36
Coordinates from ORCA-job ./opt_b97-3c_parallel
N         -5.86482        2.68341        0.66897
C         -4.74725        2.52158        0.49013
C         -3.75010        1.53235        0.22751
C         -2.32994        1.71405        0.13783
C         -1.50387        0.58887        0.09901
C         -2.26197       -0.62304        0.18276
C         -3.49442        0.11742        0.22891
N         -4.60387       -0.68082        0.24875
C         -1.59167       -1.75430       -0.36357
N         -2.40063       -2.77016       -0.80140
C         -0.19919       -1.82033       -0.33421
C          0.40721       -2.99846       -0.93198
N          0.87687       -3.92008       -1.41889
C          0.57281       -0.68855        0.05728
C          1.91324       -0.89437        0.47635
C          2.15784       -2.11856        1.23418
N          2.34873       -3.06635        1.84315
C          3.02394       -0.02802        0.35930
N          4.25798       -0.55102        0.70605
C          3.03031        1.29225       -0.12662
C          4.32797        1.90546       -0.39337
N          5.34238        2.38430       -0.61542
C          1.90977        2.12685       -0.25275
N          2.10696        3.45460       -0.55827
C          0.57024        1.80757       -0.04649
C         -0.08113        0.56986        0.05590
H         -2.00776        2.74899        0.14947
H         -5.50723       -0.25779        0.43606
H         -4.48937       -1.67100        0.43582
H         -3.38552       -2.57852       -0.95092
H         -1.98271       -3.55334       -1.29288
H          4.34102       -1.54284        0.90496
H          5.10051       -0.02945        0.48748
H          3.03107        3.76068       -0.84645
H          1.31129        4.02991       -0.81147
H         -0.05658        2.68581       -0.09073
