31
Coordinates from ORCA-job ./opt_b97-3c_parallel
N         -4.39017       -2.16830        0.26197
C         -3.40343       -1.59533        0.18714
C         -2.14830       -0.85472        0.07650
C         -2.22028        0.52395        0.35210
N         -3.40642        0.99541        0.88939
C         -1.27019        1.48774       -0.03471
C         -1.73053        2.87355       -0.04659
N         -2.09715        3.95682       -0.06729
C          0.07719        1.27385       -0.39040
N          0.72840        2.34242       -0.96740
C          0.84405        0.11163       -0.15589
C          0.34486       -1.21824       -0.14344
C          1.28157       -2.28077       -0.01748
C          2.64721       -2.08157        0.12860
C          3.11990       -0.78966        0.15315
N          4.39855       -0.40515        0.34147
C          4.39259        0.71770        0.36234
C          3.11555        1.35849        0.17275
C          2.24741        0.24512        0.00375
C         -1.00812       -1.60473       -0.28372
N         -1.24188       -2.90095       -0.69975
H         -4.19037        0.36171        1.00639
H         -3.57775        1.99478        0.92670
H          0.17915        3.13580       -1.28199
H          1.62315        2.17833       -1.41583
H          0.97014       -3.32056        0.02482
H          3.32261       -2.92452        0.25460
H          5.35977        1.15875        0.57181
H          2.91715        2.42143        0.25633
H         -0.48854       -3.40162       -1.15807
H         -2.19230       -3.16832       -0.93504
