24
Coordinates from ORCA-job ./opt_b97-3c_parallel
N          3.69119       -2.22016        0.00004
C          2.92989       -1.36790        0.00056
C          1.95523       -0.30123        0.00085
C          2.63273        0.96913        0.00106
N          2.40369        2.04818        0.00098
C          1.37891        2.45384        0.00183
C          0.02638        1.96757        0.00116
C         -0.35433        0.61780        0.00070
C          0.55607       -0.47575        0.00055
C          0.04487       -1.79387        0.00010
C         -1.32444       -2.05587       -0.00044
C         -2.18817       -0.97621       -0.00038
C         -3.57261       -0.96764       -0.00087
C         -3.96911        0.36358       -0.00060
C         -2.83043        1.16252        0.00001
C         -1.72264        0.32016        0.00011
H          3.69951        1.16798        0.00070
H          1.71956        3.48344        0.00128
H         -0.69286        2.78110        0.00127
H          0.71052       -2.65282        0.00005
H         -1.69954       -3.07641       -0.00089
H         -4.22586       -1.83680       -0.00145
H         -4.99593        0.72065       -0.00084
H         -2.82610        2.24899        0.00038
