33
Coordinates from ORCA-job ./opt_b97-3c_parallel
N          5.47355        2.27176       -0.16312
C          4.34480        2.22926        0.01257
C          3.28907        1.26743        0.04344
C          1.87746        1.52005        0.02308
C          1.00727        0.43289       -0.00388
C          1.67690       -0.83281       -0.00267
C          2.92547       -0.12017       -0.05960
N          3.96287       -0.99163       -0.24237
C          0.88270       -2.01624        0.07473
N          1.58774       -3.18637        0.16993
C         -0.51160       -1.94668        0.04509
C         -1.24703       -3.19548        0.09427
N         -1.82171       -4.18254        0.14445
C         -1.16730       -0.69387       -0.01817
C         -2.57685       -0.70066       -0.06736
C         -3.44554        0.44293       -0.14041
N         -4.80127        0.33067       -0.27667
N         -3.37110        1.54148       -0.08243
C         -2.40915        2.07635       -0.01864
N         -2.90361        3.34082        0.14394
C         -1.00027        1.78482       -0.04231
C         -0.40398        0.50954       -0.02411
H          1.56916        2.55943        0.03949
H          3.75403       -1.93813       -0.54103
H          4.88203       -0.61608       -0.45131
H          2.57241       -3.13592        0.40969
H          1.08567       -4.03491        0.40915
H         -3.18238       -1.60330       -0.06522
H         -5.38750        1.15216       -0.17920
H         -5.24197       -0.58088       -0.22590
H         -3.90163        3.48443        0.25290
H         -2.27983        4.11317        0.34711
H         -0.45102        2.71884       -0.06449
