25
Coordinates from ORCA-job ./opt_b97-3c_parallel
N          5.13230        0.21118        0.17206
C          4.01230       -0.00628        0.10322
C          2.59870       -0.26948        0.02995
C          2.23884       -1.66144       -0.02696
N          1.32181       -2.27514       -0.01959
C          0.30580       -1.85194        0.04759
C         -0.38815       -0.59039       -0.01085
C          0.27465        0.65686       -0.03779
C          1.67891        0.78333        0.00257
C         -0.53002        1.82245       -0.09329
N         -0.00013        3.08154       -0.14230
N         -1.88538        1.81060       -0.11352
C         -2.48287        0.60535       -0.07836
C         -3.91942        0.43819       -0.08579
C         -3.94673       -1.01607       -0.03095
C         -2.68764       -1.59667       -0.00005
C         -1.77941       -0.57130       -0.02970
H          2.84877       -2.50070       -0.34333
H         -0.10328       -2.84794        0.17451
H          2.10987        1.78074        0.02135
H          0.98128        3.18776       -0.36997
H         -0.62324        3.85066       -0.36220
H         -4.64567        1.10336        0.37009
H         -4.83601       -1.64111       -0.01087
H         -2.47100       -2.66104        0.04369
