29
Coordinates from ORCA-job ./opt_b97-3c_parallel
N          3.96465        1.80129        0.12016
C          3.12503        1.08925        0.11076
N          3.63627       -0.17697        0.05140
C          2.60745       -1.07172        0.01802
N          2.45691       -2.16198       -0.02026
N          1.24545       -1.26345        0.00284
C          0.38497       -0.16763        0.04290
C          0.72626        1.24945        0.13088
N          1.98239        1.85672        0.15770
N         -0.33317        2.15854        0.18486
C         -1.65075        1.69146        0.13590
N         -2.00745        2.74307        0.20487
C         -1.91177        0.32555        0.02138
C         -3.16882       -0.22308       -0.08320
N         -4.27872       -0.25814       -0.14271
N         -2.96539       -1.57980       -0.17950
C         -1.59502       -1.80624       -0.13001
N         -1.48256       -2.90936       -0.21108
C         -0.90993       -0.61228       -0.00353
H          4.84303        1.30302        0.27248
H          4.23699        2.75054       -0.13637
H          3.32648       -2.05953       -0.54696
H          2.62519       -2.94546        0.61274
H         -2.33163        3.22040        1.05340
H         -2.04537        3.48136       -0.50840
H         -4.88370        0.03728       -0.91825
H         -4.93718       -0.67695        0.52241
H         -2.10902       -3.72029       -0.24713
H         -0.54814       -3.32824       -0.26542
