31
Coordinates from ORCA-job ./opt_b97-3c_parallel
N         -4.15370       -2.49496       -0.62109
C         -3.34563       -1.70751       -0.43595
C         -2.30987       -0.72236       -0.19541
C         -2.81588        0.59128        0.13657
N         -3.96095        0.83073        0.85067
N         -2.49383        1.64378        0.06582
C         -1.44734        1.87110       -0.20246
C         -0.11736        1.32524       -0.08326
C          0.95216        2.23668        0.03374
N          0.73503        3.58787        0.07315
C          2.26756        1.78431        0.10799
C          2.50677        0.42006        0.08299
N          3.71083       -0.18282        0.17632
C          3.50634       -1.28650        0.16624
N          4.50437       -2.20093        0.32869
C          2.13424       -1.70832        0.03360
C          1.46615       -0.45795       -0.03189
C          0.11112       -0.07509       -0.12910
C         -0.93467       -1.02802       -0.28528
N         -0.62476       -2.33350       -0.57393
H         -4.30848        1.77987        0.93136
H         -4.62200        0.07487        0.99351
H         -1.76153        2.79551       -0.67478
H         -0.20748        3.92336        0.23855
H          1.50614        4.19559        0.32715
H          3.09589        2.48405        0.19723
H          4.27629       -3.17565        0.48783
H          5.43730       -1.88312        0.56694
H          1.76591       -2.72595        0.09481
H         -1.37923       -2.95277       -0.85232
H          0.29904       -2.53495       -0.93824
