28
Coordinates from ORCA-job ./opt_b97-3c_parallel
N         -4.52347       -2.09866        0.04072
C         -3.65214       -1.36673       -0.06062
C         -2.53377       -0.48053       -0.17999
C         -2.67986        0.87803       -0.02146
N         -3.78325        1.64660       -0.04319
C         -1.34572        1.19947        0.12128
C         -0.97313        2.48619        0.62358
N         -0.69479        3.52885        0.99864
C         -0.37531        0.14231        0.04324
C         -1.18442       -0.94490       -0.15218
C         -0.71922       -2.25551       -0.26118
C          0.64516       -2.52101       -0.12745
C          1.57496       -1.49665        0.08459
C          2.91403       -1.95184        0.38179
N          4.07132       -1.27847        0.30325
C          4.06921       -0.00494       -0.09988
N          3.16849        0.84384       -0.47895
C          1.88891        0.94706       -0.31024
N          2.05147        2.00341       -0.58164
C          1.03655       -0.14723        0.08144
H         -3.74956        2.59261        0.33289
H         -4.68673        1.24455        0.20003
H         -1.41591       -3.07817       -0.40594
H          0.98096       -3.55570       -0.15158
H          3.45152       -2.85303        0.71209
H          5.05579        0.48144       -0.10909
H          2.56701        2.80574       -0.93779
H          1.35849        1.75726       -1.28427
