34
Coordinates from ORCA-job ./opt_b97-3c_parallel
N          5.53569        0.85078        0.58589
C          4.49198        0.43428        0.37381
C          3.15695       -0.10321        0.12126
C          3.12938       -1.45334       -0.26070
N          4.30623       -2.13044       -0.48457
C          2.01196       -2.26305       -0.35137
C          0.67864       -1.95045       -0.17495
C          0.03916       -0.70963       -0.05880
C          0.67289        0.56556       -0.02516
C         -0.18132        1.69744       -0.22127
N          0.25896        2.95317       -0.55877
C         -1.56518        1.58839       -0.21954
C         -2.15970        0.35596       -0.05962
C         -3.58704        0.20091       -0.03942
C         -4.70417        1.06838       -0.24876
N         -5.61147        1.73940       -0.06795
C         -3.37119       -1.21690        0.10936
N         -4.48359       -1.97528        0.35003
C         -2.15230       -1.98364        0.08750
C         -1.37516       -0.77539       -0.00976
C          2.05789        0.78346        0.25447
N          2.38576        1.99982        0.82036
H          4.29085       -3.14083       -0.56684
H          5.18591       -1.67792       -0.25662
H          2.19843       -3.31632       -0.55889
H          0.06105       -2.83904       -0.24202
H         -0.41677        3.62656       -0.90242
H          1.22107        3.05248       -0.86623
H         -2.18579        2.47276       -0.35393
H         -5.35889       -1.50394        0.55599
H         -4.37291       -2.93537        0.65627
H         -1.94688       -2.82723        0.73952
H          3.35658        2.23940        0.99087
H          1.67155        2.71147        0.93271
