25
Coordinates from ORCA-job ./opt_b97-3c_parallel
N         -4.41547       -0.28368       -0.01217
C         -3.31252       -0.20272       -0.00643
C         -2.24366       -1.18639       -0.00081
C         -0.79877       -0.95627        0.00411
C         -0.08022       -2.22239        0.00833
C          1.30963       -2.27745        0.00816
C          2.06647       -1.06089        0.00435
C          3.41197       -0.81903        0.00188
N          3.50153        0.50923        0.00008
C          2.27599        1.15373        0.00101
N          2.65402        2.19307       -0.00168
C          1.33392        0.08614        0.00417
C         -0.04920        0.23464        0.00424
N         -0.50572        1.49993        0.00390
C         -1.86698        1.60770        0.00041
N         -3.15844        1.16906       -0.00375
H         -5.19752        0.37285        0.01012
H         -4.84600       -1.20839       -0.05919
H         -2.57780       -2.22077       -0.00180
H         -0.61572       -3.17056        0.01335
H          1.81272       -3.24312        0.01187
H          4.31033       -1.45573        0.00186
H          1.85004        2.81843        0.00295
H          3.47791        2.79628       -0.01202
H         -2.17781        2.66514        0.00219
