25
Coordinates from ORCA-job ./opt_b97-3c_parallel
N          5.41527       -0.28303       -0.08941
C          4.27352       -0.32493       -0.06196
C          2.83864       -0.33033       -0.02447
C          2.41754       -1.63905       -0.19329
N          1.27393       -2.34304       -0.06876
C          0.08526       -1.72283        0.25570
C         -0.22427       -0.33100        0.13631
C          0.63678        0.88217        0.06452
C         -0.14376        1.97522       -0.23674
N         -1.46826        2.14755       -0.38236
C         -2.22811        1.05200       -0.23587
N         -3.59522        0.93768       -0.28661
C         -3.87204       -0.40966       -0.04850
N         -4.89041       -0.83793       -0.01294
N         -2.69077       -1.12783        0.14729
C         -1.66562       -0.21658        0.02168
C          2.00071        0.83159        0.19362
N          2.46410        1.81290        0.42442
H          2.96530       -2.57837       -0.37025
H         -0.09933       -2.80447        0.15690
H          0.18549        3.00950       -0.42596
H         -5.79557       -0.36553       -0.05157
H         -5.10875       -1.82969        0.09697
H          3.47170        1.65407        0.40354
H          2.34444        2.72807        0.85910
