35
Coordinates from ORCA-job ./opt_b97-3c_parallel
N         -5.73966        1.63483       -1.07630
C         -4.99973        0.97112       -0.51073
C         -3.62418        0.62787       -0.32413
C         -3.53135       -0.74356        0.09050
C         -2.14745       -0.99328        0.38188
C         -1.40699       -2.22048        0.46890
N         -2.16700       -3.33443        0.71403
C         -0.04587       -2.28092        0.17437
C          0.60507       -3.57533        0.09309
N          1.10956       -4.59983        0.03911
C          0.69681       -1.09699        0.05161
N          2.01053       -1.19031       -0.18507
C          2.92335       -0.62578       -0.34747
N          3.67962       -1.42649       -1.15815
C          3.15642        0.75683       -0.04970
C          4.54306        1.15285       -0.20489
N          5.63164        1.47505       -0.34055
C          2.16851        1.63538        0.43490
N          2.61215        2.90080        0.76273
C          0.77656        1.35245        0.56983
C         -0.01369        2.41531        1.17213
N         -0.61973        3.24937        1.66684
C          0.07316        0.14729        0.26461
C         -1.38813        0.20921        0.17789
C         -2.29516        1.17107       -0.39417
N         -2.26013        2.35071       -1.08309
H         -4.22756       -1.56365       -0.07190
H         -3.17791       -3.25719        0.70601
H         -1.75142       -4.25181        0.58631
H          3.45972       -2.41484       -1.21890
H          4.62559       -1.14278       -1.39000
H          3.60974        3.08473        0.79219
H          1.98897        3.53493        1.25218
H         -1.42455        2.92081       -1.00672
H         -3.13851        2.83626       -1.23455
