33
Coordinates from ORCA-job ./opt_b97-3c_parallel
N         -5.69384        0.62973        0.01084
C         -4.55708        0.50489        0.00829
C         -3.10973        0.33118        0.00788
C         -2.62773       -0.98490        0.09407
N         -3.54035       -2.01020        0.19931
C         -1.30697       -1.43538        0.07653
C         -0.07047       -0.76279        0.00866
C          1.10823       -1.57447       -0.02271
C          1.06031       -3.02442       -0.06775
N          1.03124       -4.16634       -0.11507
C          2.39162       -1.00356       -0.03059
N          3.53886       -1.75643       -0.07967
C          2.48630        0.37663        0.00389
C          3.66487        1.18221        0.04787
N          5.01176        1.06301        0.22841
N          2.82495        1.92998       -0.01781
C          1.86204        2.51552       -0.00963
C          1.38813        1.16198       -0.00954
C          0.07580        0.64734       -0.01746
C         -0.94278        1.60763       -0.05950
C         -2.33166        1.49662       -0.07199
N         -2.97138        2.71157       -0.16275
H         -4.52708       -1.81058        0.07015
H         -3.22459       -2.96929        0.10494
H         -1.26947       -2.51726        0.14245
H          3.45469       -2.74346       -0.29875
H          4.39977       -1.28916       -0.34288
H          5.56092        1.89325        0.41764
H          5.38144        0.17542        0.55096
H          1.32817        3.45690       -0.05155
H         -0.61009        2.63931       -0.10431
H         -2.43815        3.56689       -0.05481
H         -3.97866        2.74999       -0.04238
