27
Coordinates from ORCA-job ./opt_b97-3c_parallel
N          4.00426        1.86063        0.07215
C          2.97059        0.97948       -0.06173
C          3.17513       -0.44322       -0.10650
C          2.14857       -1.38872       -0.06383
C          0.76411       -1.12085       -0.01677
C         -0.14820       -2.20614        0.03622
N          0.25774       -3.50986        0.09234
N         -1.49451       -2.06306        0.04964
C         -1.92763       -0.79343        0.01218
C         -3.24826       -0.31416        0.00287
C         -2.99336        1.10791       -0.04437
N         -4.02930        1.99433       -0.08369
N         -1.91652        1.44985       -0.05600
C         -1.16043        0.32732       -0.02728
C          0.22737        0.18873       -0.03647
C          1.04787        1.37264       -0.07389
N          2.11173        1.67044       -0.05145
H          3.82964        2.85842        0.03181
H          4.96222        1.53579        0.00168
H          4.20883       -0.77642       -0.15955
H          2.48179       -2.42215       -0.08165
H         -0.43805       -4.21349        0.31264
H          1.21997       -3.70422        0.34333
H         -4.19927       -0.83713        0.01129
H         -3.84267        2.97727       -0.24726
H         -4.97738        1.65885       -0.21235
H          0.76265        2.39636        0.14156
