31
Coordinates from ORCA-job ./opt_b97-3c_parallel
N          5.18692        1.73316        0.22353
C          4.15137        1.47939       -0.18982
C          2.87346        0.84167       -0.11526
C          2.42605       -0.52212        0.01406
N          3.34979       -1.51150        0.21413
C          1.11499       -1.11694       -0.03481
C          0.24543       -2.25780       -0.05497
N          0.76876       -3.51755       -0.12112
C         -1.13004       -2.06940       -0.01188
C         -1.68844       -0.79072        0.02265
N         -3.03779       -0.69512        0.06032
C         -3.87269        0.02724        0.08770
N         -5.11315       -0.53860        0.08105
C         -3.66186        1.45225        0.09388
C         -2.39774        2.14324        0.05732
N         -1.44521        1.58228        0.02626
C         -0.86422        0.35820        0.00327
C          0.53941        0.20085       -0.03972
C          1.48968        1.22458       -0.08953
N          1.22295        2.56725       -0.13549
H          4.30476       -1.24716        0.43368
H          3.02662       -2.42537        0.51278
H          1.74476       -3.61812       -0.37814
H          0.14467       -4.28997       -0.32588
H         -1.78746       -2.93666       -0.01320
H         -5.20855       -1.53809       -0.05786
H         -5.93415        0.04347       -0.04020
H         -4.44541        2.20417        0.14227
H         -2.21216        3.20881        0.00261
H          0.27241        2.87851        0.03413
H          1.98115        3.22502        0.00918
