30
Coordinates from ORCA-job ./opt_b97-3c_parallel
N          1.60812       -3.11680       -1.08269
C          1.61212       -2.05196       -0.66585
C          1.64520       -0.69120       -0.15341
C          2.96376       -0.18083        0.03087
N          4.04874       -1.01663       -0.09120
C          3.33751        1.12912        0.34383
C          2.50732        2.28686        0.43042
N          1.44209        2.18032        0.23827
C          0.35781        1.43382        0.02096
C         -0.83918        2.14414       -0.10799
C         -2.04889        1.50467       -0.32195
N         -3.19116        2.22476       -0.52522
C         -2.07596        0.07680       -0.33741
C         -2.90369       -1.02747        0.07964
N         -4.23685       -0.82384        0.29765
C         -2.47728       -2.38166        0.30601
C         -1.11443       -1.94474        0.33087
C         -0.85766       -0.63696       -0.07012
C          0.40562        0.02124       -0.05580
H          3.90855       -1.93484       -0.50062
H          4.97340       -0.60616       -0.15692
H          4.38246        1.40813        0.46688
H          2.76130        3.27587        0.79216
H         -0.81957        3.23186       -0.06493
H         -3.10367        3.20839       -0.75476
H         -4.00481        1.73130       -0.87630
H         -4.57148        0.13069        0.37517
H         -4.77588       -1.55527        0.74679
H         -2.91739       -3.09332        0.99777
H         -0.37661       -2.59553        0.78907
