26
Coordinates from ORCA-job ./opt_b97-3c_parallel
N         -4.48286        0.47116       -0.03568
C         -3.16795        0.09953       -0.03304
C         -2.91150       -1.27315       -0.03926
C         -1.61659       -1.88164       -0.03577
N         -0.65416       -1.36449       -0.02300
C         -0.07340       -0.15686       -0.01288
C         -0.81034        1.04634       -0.01673
C         -0.11775        2.27304       -0.01033
C          1.27701        2.32610       -0.00144
C          1.96961        1.12271        0.00383
C          3.37510        0.89057        0.01259
N          2.92123       -0.14761        0.00673
C          2.30389       -1.09799        0.01367
N          2.30247       -2.46162        0.04065
C          1.32313       -0.06245        0.00076
C         -2.21461        1.12990       -0.02505
H         -5.18894       -0.23418        0.14332
H         -4.71632        1.43920        0.15489
H         -3.72337       -1.99692       -0.04837
H         -1.36301       -2.93461       -0.04369
H         -0.66897        3.21046       -0.01287
H          1.80318        3.27745        0.00214
H          4.18252        1.61275        0.00821
H          3.16718       -2.97850       -0.06525
H          1.42296       -2.95793       -0.05333
H         -2.62690        2.13702       -0.02472
