28
Coordinates from ORCA-job ./opt_b97-3c_parallel
N          4.11341        0.78713       -0.30225
C          2.84007        0.37220       -0.20595
C          2.74833       -0.94637        0.13621
C          1.51520       -1.67972        0.26983
C          0.26131       -1.09685        0.14894
C         -0.86938       -1.98790        0.12302
N         -1.23491       -3.02843        0.15996
N         -2.19993       -1.62421       -0.02615
C         -2.36674       -0.29481       -0.15098
N         -3.54573        0.36946       -0.30458
C         -3.12930        1.69152       -0.34543
C         -1.78506        1.96839       -0.23470
C         -1.33937        0.68132       -0.10740
C         -0.01099        0.32351        0.06902
C          0.90986        1.32496        0.19391
N          0.96682        2.20201        1.21162
C          2.10589        1.49827       -0.43204
H          4.34198        1.66283       -0.76981
H          4.85949        0.12221       -0.50189
H          3.64898       -1.54559        0.25018
H          1.61875       -2.74972        0.42173
H         -1.80358       -3.85319       -0.02710
H         -0.38666       -3.36048        0.61653
H         -3.91841        2.45036       -0.46406
H         -1.30640        2.66633       -0.91821
H          1.83063        2.71498        1.38885
H          0.56487        1.96823        2.11790
H          2.21599        2.11651       -1.31998
