31
Coordinates from ORCA-job ./opt_b97-3c_parallel
N          5.26770        0.52471       -0.42521
C          4.14958        0.71897       -0.29525
C          2.74760        0.93141       -0.10122
C          2.57613        2.28729        0.05065
C          1.24250        2.27953        0.38950
C          0.65839        3.57484        0.24118
N          0.14373        4.58681        0.11497
C          0.54453        1.02476        0.35565
C          1.54811        0.15636        0.01748
C          1.35350       -1.20777       -0.20856
C          2.47933       -2.04246       -0.56645
N          3.35868       -2.71666       -0.84481
C          0.06937       -1.76241       -0.03987
N         -0.09479       -3.11971       -0.18698
C         -1.03043       -0.95075        0.31562
C         -2.24560       -1.62299        0.73745
N         -2.83753       -2.49563        1.06720
N         -3.52105       -1.27078        0.34021
C         -3.59214       -0.00530       -0.19314
N         -4.57034        0.30562       -0.59659
N         -3.05138        1.21843       -0.49961
C         -1.72526        1.44691       -0.15572
C         -0.78956        0.48289        0.38521
H          3.28799        2.91174        0.59008
H         -1.02336       -3.50554       -0.31787
H          0.69267       -3.66902       -0.52260
H         -3.49250       -3.15028        1.49427
H         -1.90445       -2.86573        1.24744
H         -5.07655        1.13052       -0.91739
H         -5.09183       -0.49985       -0.94010
H         -1.88492        2.49113       -0.46506
