31
Coordinates from ORCA-job ./opt_b97-3c_parallel
N          3.54560       -3.37991        0.25260
C          2.77116       -2.54556        0.15589
C          1.76995       -1.53071        0.03858
C          0.37369       -1.83464       -0.08107
C         -0.68805       -0.87051       -0.11631
C         -2.00012       -1.49385       -0.10803
N         -2.63061       -2.39857       -0.08878
N         -3.24006       -0.86808       -0.03373
C         -3.29570        0.50338       -0.07952
N         -4.36541        0.72288        0.07137
N         -2.50276        1.50428       -0.25017
C         -1.21811        1.59239       -0.22890
N         -1.45722        2.66958       -0.29339
C         -0.31537        0.47073       -0.13529
C          1.08803        0.84086       -0.06670
C          1.60559        2.10286       -0.04361
C          2.89836        1.67071        0.04595
N          3.66430        2.45174        0.20095
C          3.33685        0.37873        0.10653
C          2.07161       -0.12071        0.02330
H          0.23133       -2.91178       -0.15750
H         -1.83465       -2.88563       -0.49815
H         -3.39278       -3.07485       -0.05588
H         -5.07572        0.10138        0.45607
H         -4.63791        1.66928        0.33315
H         -1.81751        3.58702       -0.55460
H         -0.48602        2.64904       -0.60208
H          1.22144        2.85162        0.64837
H          4.59120        2.12977        0.47687
H          3.70894        3.46944        0.18026
H          4.12343        0.01763       -0.55488
