35
Coordinates from ORCA-job ./opt_b97-3c_parallel
N          5.31201       -2.85518        0.21173
C          4.39289       -2.17476        0.19557
C          3.21641       -1.32382        0.16768
C          2.05334       -2.01287        0.46516
C          0.74470       -1.57745        0.44161
C          0.20238       -0.32266        0.16935
C          0.91727        0.88644        0.00724
C          0.12638        2.05669        0.02955
C         -1.24932        2.05113        0.18569
N         -1.91475        3.24429        0.22257
C         -2.01388        0.83990        0.19875
C         -3.42281        0.55622        0.12166
N         -4.43896        1.44879        0.33204
C         -3.50865       -0.86200       -0.10274
C         -4.79615       -1.48634       -0.17209
N         -5.70374       -2.13703       -0.41641
C         -2.19229       -1.43657       -0.19385
N         -2.11568       -2.72183       -0.65860
C         -1.25871       -0.37494        0.08966
C          2.33118        1.03742       -0.14019
C          2.83229        2.38942       -0.37205
N          3.23859        3.44421       -0.54616
C          3.34859        0.04438       -0.12638
N          4.64418        0.45163       -0.39671
H          2.16362       -3.07012        0.70557
H          0.04475       -2.37358        0.67586
H          0.55665        3.05124       -0.03029
H         -2.91366        3.23890        0.04818
H         -1.40261        4.08965       -0.00466
H         -5.37942        1.08913        0.45575
H         -4.21441        2.34401        0.75167
H         -2.96327       -3.18014       -0.97744
H         -1.22243       -3.08054       -0.97693
H          5.41047       -0.19455       -0.24000
H          4.85320        1.44326       -0.44974
