26
Coordinates from ORCA-job ./opt_b97-3c_parallel
N         -0.20357       -3.32083       -0.20736
C         -0.04208       -1.99737       -0.03915
C          1.43345       -1.96043       -0.12011
C          1.98812       -0.63583       -0.08833
N          3.27985       -0.34593       -0.13623
C          3.22612        1.03603       -0.08758
N          2.03740        1.57201       -0.03561
C          1.22410        0.56299       -0.01965
C         -0.16909        0.48571        0.06967
C         -0.97101        1.62808        0.17941
N         -0.65986        2.68882        0.26200
C         -2.42318        1.76223        0.00933
C         -3.33243        0.75647       -0.26994
C         -3.07519       -0.63840       -0.10222
C         -1.99392       -1.10231        0.55595
C         -0.74707       -0.83584        0.10105
H          0.57004       -3.89426       -0.53712
H         -1.05875       -3.67682       -0.63033
H          2.26710       -2.65134       -0.23631
H          4.04831        1.76722       -0.09014
H         -1.01552        3.58088       -0.07544
H          0.34568        2.69944        0.10288
H         -2.86589        2.76202       -0.01101
H         -4.34266        1.01653       -0.57120
H         -3.89144       -1.31180       -0.34390
H         -2.12625       -1.63983        1.49190
