29
Coordinates from ORCA-job ./opt_b97-3c_parallel
N          4.20792       -2.07013        0.35993
C          3.24928       -1.46399        0.22225
C          2.02050       -0.73537        0.06267
C          0.69449       -1.31495        0.23811
N          0.62395       -2.36825        0.58521
C         -0.47372       -0.60143        0.00965
C         -1.58017       -1.22770       -0.50916
N         -2.03227       -2.12379       -0.97533
N         -2.93831       -1.00389       -0.43538
C         -3.20665        0.24790        0.07496
N         -4.28022        0.43640        0.24067
N         -2.75621        1.49289        0.45326
C         -1.39720        1.75967        0.31735
C         -0.37689        0.77415        0.02269
C          0.89976        1.40274       -0.17220
C          1.29726        2.70443       -0.21862
C          2.62287        2.69197       -0.27661
C          3.09500        1.45171       -0.26427
C          2.01701        0.62134       -0.18870
H          0.42429       -2.85964        1.45506
H          1.42332       -2.84469        0.16678
H         -2.57386       -2.83957       -1.45901
H         -1.09684       -2.51093       -0.85264
H         -4.94261        1.19339        0.40409
H         -4.80549       -0.43123        0.33943
H         -1.58288        2.83310        0.47675
H          0.66368        3.58830       -0.22362
H          3.24444        3.58379       -0.33072
H          4.14348        1.16289       -0.30467
