26
Coordinates from ORCA-job ./opt_b97-3c_parallel
N         -3.48748       -2.21251        0.00491
C         -2.77492       -1.04682       -0.02629
C         -3.51572        0.13600       -0.05160
C         -2.97272        1.45901       -0.08386
N         -1.91646        1.73820       -0.04033
C         -0.67127        1.24621       -0.00832
C          0.38591        2.16892        0.03569
C          1.71418        1.75019        0.04906
C          1.95901        0.38452        0.01376
C          3.21112       -0.29396        0.00618
N          4.52968        0.05064       -0.00944
N          2.44121       -1.12162       -0.00915
C          1.54894       -1.81724       -0.02544
C          0.95155       -0.51857       -0.01504
C         -0.40143       -0.14086       -0.02107
C         -1.37586       -1.15720       -0.02673
H         -4.48007       -2.16656        0.20761
H         -2.99852       -3.07132        0.23192
H         -4.60333        0.11666       -0.05396
H         -3.49544        2.40249       -0.18250
H          0.16970        3.23496        0.05773
H          2.53093        2.46688        0.08367
H          4.79166        1.01970       -0.14566
H          5.23041       -0.66191       -0.18138
H          1.12217       -2.77249       -0.30508
H         -1.00589       -2.17867       -0.01909
