25
Coordinates from ORCA-job ./opt_b97-3c_parallel
N          4.86076       -0.84938       -0.37471
C          3.84727       -0.33493       -0.25924
C          2.56043        0.26622       -0.10963
C          2.72237        1.62959        0.07973
N          1.95667        2.69233        0.39602
C          0.58925        2.54668        0.44249
C         -0.13294        1.47165       -0.15689
C         -1.48025        1.99077       -0.26535
N         -2.21820        2.80083       -0.40290
N         -2.58390        1.22025       -0.23342
C         -2.44596       -0.11246       -0.09991
N         -3.44927       -1.05560       -0.06901
C         -2.81975       -2.29144        0.04819
C         -1.39000       -2.13727        0.08713
C         -0.46113       -3.21293        0.21261
N          0.25970       -4.09430        0.29752
C         -1.17079       -0.72897       -0.00934
C          0.04519        0.05543       -0.02443
C          1.35769       -0.53307       -0.06855
H          3.60514        2.28734        0.11784
H          0.69349        3.61123        0.70447
H         -1.50550        3.45813       -0.71802
H         -3.06054        3.35071       -0.23573
H         -3.27902       -3.29057        0.10758
H          1.48138       -1.60513       -0.12356
