28
Coordinates from ORCA-job ./opt_b97-3c_parallel
N          5.16953        0.99129       -0.40174
C          4.09926        0.61452       -0.25591
C          2.74843        0.12376       -0.07800
C          2.47139       -1.24991        0.01668
N          3.51767       -2.13726       -0.00931
C          1.19686       -1.83134        0.12437
C         -0.08169       -1.24676        0.11663
N         -1.11369       -2.13839        0.18720
C         -2.39444       -1.70360        0.15407
C         -2.67146       -0.34860        0.04744
C         -3.91998        0.33127       -0.02157
N         -5.20959       -0.11192       -0.03147
N         -3.14077        1.15407       -0.06740
C         -2.24168        1.84632       -0.11122
C         -1.66817        0.54521       -0.01198
C         -0.32878        0.14458        0.02027
N          0.63460        1.07619       -0.03754
C          1.72586        1.13324       -0.02824
N          1.92172        2.43934        0.32917
H          3.31849       -3.12203       -0.14680
H          4.43742       -1.79642       -0.26961
H          1.19653       -2.91831        0.19903
H         -3.17813       -2.45627        0.20404
H         -5.97707        0.55026       -0.02687
H         -5.41356       -1.09357        0.11845
H         -1.74008        2.80465       -0.16653
H          2.86563        2.81121        0.34768
H          1.15626        3.09912        0.25465
