32
Coordinates from ORCA-job ./opt_b97-3c_parallel
N          5.57525        1.29921       -0.48680
C          4.92364        0.52878        0.05045
C          3.52124        0.32177        0.22952
C          2.90220       -0.97015        0.17990
C          1.51606       -1.01158        0.14306
C          0.77343       -2.18539        0.05008
N          1.35701       -3.41941        0.01822
N         -0.57163       -2.17852       -0.02504
C         -1.28761       -1.02327        0.00951
C         -2.66563       -1.22372       -0.09641
C         -3.71907       -0.31191       -0.09617
N         -4.97132       -0.84122       -0.25127
C         -3.65965        1.06905        0.05245
C         -2.54162        1.87672        0.21958
N         -2.78096        3.21651        0.35917
C         -1.20651        1.48845        0.24717
C         -0.63649        0.21986        0.14000
C          0.80801        0.23114        0.18018
C          2.15266        0.73059        0.03721
N          2.10544        2.00563       -0.45616
H          3.49756       -1.87927        0.14656
H          0.76121       -4.23184        0.13378
H          2.33156       -3.50398        0.28233
H         -2.96918       -2.26508       -0.20492
H         -5.74147       -0.21315       -0.45284
H         -5.05601       -1.80637       -0.55091
H         -4.61801        1.58713        0.03965
H         -2.02402        3.81652        0.66798
H         -3.73160        3.52568        0.52805
H         -0.49747        2.30487        0.37290
H          1.23039        2.34564       -0.83945
H          2.96681        2.42835       -0.78656
