25
Coordinates from ORCA-job ./opt_b97-3c_parallel
N          4.71840        1.50198        1.20035
C          3.78088        1.00426        0.77805
C          2.63549        0.34993        0.22891
C          1.84642        1.22559       -0.45337
C          0.55989        1.01882       -0.69303
C         -0.18199       -0.04402       -0.24506
C          0.28095       -1.43535       -0.22703
N          1.58323       -1.78690       -0.25457
C          2.68958       -1.05272       -0.03674
N         -0.57514       -2.52218       -0.07142
C         -1.92358       -2.29602        0.06912
C         -2.43896       -0.97190        0.09152
C         -3.71039       -0.19388        0.05024
C         -3.48700        1.10642        0.09150
C         -2.20666        1.40629        0.13179
N         -1.78723        2.67506        0.26216
C         -1.58770        0.19056        0.06940
H          2.30190        2.11276       -0.89613
H          0.06341        1.75300       -1.32532
H          3.21136       -2.01817        0.05060
H         -2.74159       -3.02151        0.19893
H         -4.72602       -0.58294        0.01855
H         -4.28464        1.84749        0.11199
H         -2.46646        3.42316        0.40000
H         -0.97432        2.89463        0.83536
