29
Coordinates from ORCA-job ./opt_b97-3c_parallel
N         -6.02038       -0.75755       -0.01771
C         -4.88584       -0.61914       -0.01529
C         -3.45609       -0.42783       -0.01078
C         -3.00532        0.88111       -0.05579
C         -1.70663        1.37185       -0.04834
C         -0.45768        0.71498       -0.00675
C          0.70674        1.54502        0.01085
C          0.63064        2.99458        0.02858
N          0.58340        4.13792        0.04964
C          1.99875        0.99306        0.02144
N          3.13362        1.76515        0.05831
C          2.11568       -0.38645        0.00290
C          3.30493       -1.17642       -0.02974
N          4.64890       -1.03038       -0.21075
N          2.47699       -1.93753        0.04384
C          1.52167       -2.53652        0.01774
C          1.03012       -1.18929        0.01464
C         -0.28894       -0.69737        0.01407
C         -1.29106       -1.67883        0.03504
C         -2.67419       -1.57003        0.03361
H         -3.77641        1.64908       -0.09631
H         -1.72073        2.45496       -0.08710
H          4.00033        1.31807        0.33541
H          3.03221        2.75523        0.25594
H          4.99479       -0.14810       -0.57247
H          5.22013       -1.85286       -0.36598
H          1.01130       -3.47551        0.19175
H         -0.97035       -2.71448        0.06089
H         -3.20880       -2.51811        0.06470
