28
Coordinates from ORCA-job ./opt_b97-3c_parallel
N          5.90674        0.41463        0.22119
C          4.80097        0.13470        0.14874
C          3.40384       -0.20427        0.07079
C          3.11251       -1.61285        0.05741
N          2.21963       -2.26123        0.05781
C          1.18874       -1.88045        0.14740
C          0.42265       -0.66295        0.04478
C          1.03624        0.60622       -0.03442
C          2.43326        0.79937        0.00096
C          0.18659        1.72827       -0.13512
N          0.65363        3.00770       -0.24542
N         -1.16023        1.64770       -0.14005
C         -1.72011        0.42505       -0.04597
C         -3.14933        0.30644       -0.02758
C         -4.19631        1.25452        0.19535
N         -5.31961        1.46045        0.15572
C         -2.86882       -1.10593        0.08778
N         -3.97851       -1.89205        0.23675
C         -1.71053       -1.96455        0.12700
C         -0.97477       -0.73617        0.03948
H          3.75349       -2.42689       -0.26370
H          0.85582       -2.90849        0.05387
H          2.81618        1.81637       -0.01465
H         -0.00769        3.73540       -0.49369
H          1.62701        3.15153       -0.48694
H         -3.88961       -2.89949        0.16610
H         -4.89401       -1.47619        0.09637
H         -1.56514       -2.83713       -0.50258
