26
Coordinates from ORCA-job ./opt_b97-3c_parallel
N         -3.71929       -1.80786       -0.03461
C         -2.81730       -0.78072       -0.03263
C         -3.34568        0.51092       -0.03132
C         -2.58542        1.72293       -0.02961
N         -1.49598        1.81227       -0.00708
C         -0.35165        1.11613        0.00380
C          0.84709        1.84614        0.03553
C          2.08819        1.20866        0.04396
N          3.24740        1.93231        0.08090
C          2.09599       -0.18190        0.01654
C          3.20971       -1.07349        0.01899
N          2.30762       -1.75435       -0.00411
C          1.30911       -2.28257       -0.02057
C          0.94673       -0.89919       -0.01011
C         -0.32204       -0.29553       -0.01458
C         -1.45761       -1.12916       -0.03074
H         -4.69381       -1.59941        0.15245
H         -3.38791       -2.74642        0.15850
H         -4.42065        0.67735       -0.03471
H         -2.94304        2.74511       -0.05257
H          0.80820        2.93348        0.05441
H          4.12615        1.45775       -0.09254
H          3.20427        2.93453       -0.06690
H          4.26576       -0.84061        0.07804
H          0.69159       -3.16375       -0.14260
H         -1.26993       -2.19875       -0.03846
