30
Coordinates from ORCA-job ./opt_b97-3c_parallel
N          4.46028        0.72494       -0.54861
C          3.16338        0.55279       -0.15540
C          2.28223        1.65594        0.12244
C          0.88779        1.56469        0.20770
N          0.27147        2.75966        0.45690
C          0.14262        0.36128        0.08313
C          0.74989       -0.92000        0.02066
C          2.18378       -1.07287        0.08125
N          3.13351       -0.54847       -0.12348
C         -0.02937       -2.09123       -0.06881
N          0.55141       -3.33023       -0.12278
C         -1.42072       -2.01958       -0.10445
C         -2.02680       -0.77454       -0.06713
N         -3.35250       -0.52516       -0.12812
C         -3.45850        0.59265       -0.11300
N         -4.67482        1.19756       -0.22706
C         -2.25174        1.37605       -0.01724
C         -1.26648        0.35708        0.02482
H          5.07935       -0.07526       -0.61606
H          4.86891        1.65236       -0.56207
H          2.78575        2.61281        0.24623
H         -0.67430        2.73901        0.81962
H          0.85146        3.54834        0.72113
H          2.76075       -1.86595        0.54486
H         -0.02827       -4.12815       -0.35826
H          1.54503       -3.39157       -0.31694
H         -2.02566       -2.92089       -0.17499
H         -4.72757        2.19656       -0.38911
H         -5.49051        0.63552       -0.44391
H         -2.17916        2.45673       -0.05006
