26
Coordinates from ORCA-job ./opt_b97-3c_parallel
N          0.55276       -2.55087       -0.34947
C          1.07007       -1.31551       -0.07256
C          2.45900       -1.38717        0.04828
C          3.39568       -0.38484        0.21749
C          3.18407        0.97745        0.20307
C          1.98700        1.65323        0.04519
C          0.67291        1.17581       -0.04020
C         -0.25316        2.23418       -0.15086
C         -1.62249        2.02834       -0.18948
C         -2.06591        0.73211       -0.06706
C         -3.37949        0.30687        0.02092
C         -3.34230       -1.06063        0.21736
C         -2.01249       -1.45915        0.23733
C         -1.19422       -0.33902        0.03102
C          0.22095       -0.17744       -0.01771
H         -0.37944       -2.59054       -0.74554
H          1.19710       -3.28943       -0.60784
H          2.89616       -2.38438        0.01142
H          4.42839       -0.70761        0.32677
H          4.07220        1.59722        0.30422
H          2.11774        2.73329        0.02717
H          0.08955        3.26553       -0.20005
H         -2.31696        2.86159       -0.26305
H         -4.26811        0.93166       -0.01534
H         -4.20384       -1.70726        0.36489
H         -1.71082       -2.48028        0.44180
