27
Coordinates from ORCA-job ./opt_b97-3c_parallel
N          3.67192       -1.82244       -0.02036
C          2.81011       -0.76070       -0.02682
C          3.40145        0.49541       -0.02531
C          2.78371        1.73458       -0.02521
C          1.42920        2.03361       -0.02562
C          0.31968        1.18300       -0.02751
C         -0.91199        1.86732       -0.02522
C         -2.13320        1.19786       -0.02244
N         -3.30960        1.89347       -0.01681
C         -2.10205       -0.18950       -0.02493
C         -3.19477       -1.10787       -0.02261
N         -2.27995       -1.76938       -0.02623
C         -1.26520       -2.26249       -0.03439
C         -0.93045       -0.86982       -0.03057
C          0.32734       -0.23306       -0.03068
C          1.45156       -1.07049       -0.03216
H          3.30319       -2.74722        0.17143
H          4.65162       -1.65088        0.17696
H          4.48963        0.52231       -0.02402
H          3.45343        2.59135       -0.02327
H          1.22317        3.10208       -0.02357
H         -0.92914        2.95568       -0.02435
H         -3.28319        2.89100        0.16166
H         -4.16938        1.39468        0.18275
H         -4.25727       -0.90087       -0.05631
H         -0.63127       -3.13975       -0.00479
H          1.25439       -2.13764       -0.03672
