33
Coordinates from ORCA-job ./opt_b97-3c_parallel
N         -4.33928        2.75588        0.49037
C         -3.66751        1.85249        0.28838
C         -2.81005        0.68985        0.05220
C         -3.51752       -0.50340       -0.16714
N         -4.89257       -0.49392       -0.22811
C         -2.98799       -1.76519       -0.33695
C         -1.68329       -2.19148       -0.22717
C         -0.48443       -1.48832       -0.03127
C          0.65601       -2.33250        0.11735
N          0.58455       -3.69364        0.27493
C          1.94187       -1.82318        0.14796
C          2.08299       -0.46607        0.02589
C          3.27529        0.29575       -0.00968
C          4.63402       -0.14459        0.05682
N          5.71741       -0.50728        0.02212
C          2.68228        1.60426       -0.13541
N          3.44838        2.73057       -0.21766
N          1.56382        1.63270       -0.15623
C          1.02691        0.39199       -0.05106
C         -0.33215       -0.06361       -0.02646
C         -1.40118        0.89420        0.03580
N         -1.06052        2.22648        0.15290
H         -5.39050       -1.37681       -0.20656
H         -5.38800        0.34043        0.06965
H         -3.70223       -2.56559       -0.52682
H         -1.63450       -3.26793       -0.35150
H         -0.30481       -4.09477        0.55112
H          1.42342       -4.18571        0.56255
H          2.81140       -2.46940        0.24928
H          4.45480        2.65283       -0.31483
H          3.01231        3.62220       -0.42439
H         -1.78916        2.92483        0.05216
H         -0.11278        2.51498       -0.05378
