32
Coordinates from ORCA-job ./opt_b97-3c_parallel
N          5.29486       -1.63660        0.33351
C          4.33435       -1.03156        0.19720
C          3.10594       -0.28995        0.06316
C          1.92406       -1.09900        0.02218
C          0.53723       -0.69362       -0.04663
C         -0.38153       -1.83437       -0.06475
N         -0.14489       -2.91824       -0.08607
C         -1.75708       -1.63491       -0.04936
C         -2.84418       -2.59002       -0.04402
N         -3.76368       -3.17792       -0.38126
C         -2.23697       -0.34527       -0.02373
N         -3.54062        0.08200        0.02249
C         -3.40897        1.46215        0.03282
N         -4.31052        2.09555        0.08719
N         -2.17207        1.88459       -0.01524
C         -1.43972        0.81004       -0.04196
C          0.01437        0.66560       -0.06668
C          0.79221        1.89803       -0.12873
N          0.39462        2.93524       -0.19246
C          2.17288        2.09719       -0.14352
C          3.20873        1.08939       -0.03572
N          4.16333        1.66257       -0.04352
H          2.13440       -2.16339        0.08003
H         -0.62608       -3.80965        0.02713
H          0.65187       -3.09885       -0.69508
H         -5.26219        1.74544        0.19523
H         -4.37261        3.11203        0.13688
H          1.03954        3.71580       -0.31440
H         -0.53074        3.35755       -0.20177
H          2.55317        3.13211       -0.21844
H          4.98904        1.07535        0.06901
H          4.50797        2.59291       -0.27439
