31
Coordinates from ORCA-job ./opt_b97-3c_parallel
N          4.06466       -2.89052       -0.09085
C          3.58872       -1.89426        0.20360
C          2.64109       -0.82495        0.10488
C          2.48080        0.60845        0.02991
N          3.76106        1.09780       -0.01608
C          1.38765        1.55378       -0.00502
C          1.43670        2.85071       -0.61021
N          1.48779        3.94048       -0.26882
C          0.54930        0.38485        0.04276
C          1.20495       -0.82909        0.08250
C          0.47284       -2.00580        0.12752
C         -0.91955       -1.98006        0.08460
N         -1.51244       -3.20738        0.21759
C         -1.63116       -0.75153       -0.01124
C         -3.05070       -0.70786       -0.17714
N         -3.78183       -1.81943       -0.50248
C         -3.83691        0.44796       -0.11486
C         -3.36367        1.76189        0.21768
N         -2.39643        2.28881        0.26107
C         -1.46432        1.74461        0.03963
C         -0.85479        0.43778        0.03023
H          3.89701        2.07432       -0.25486
H          4.52151        0.45286       -0.20520
H          0.99192       -2.95983        0.19900
H         -0.93431       -3.98784        0.50883
H         -2.48953       -3.22775        0.49100
H         -4.72373       -1.68242       -0.85180
H         -3.27397       -2.62599       -0.84957
H         -4.91154        0.41444       -0.28443
H         -3.94290        2.62398        0.52857
H         -1.12471        2.64208        0.54889
