34
Coordinates from ORCA-job ./opt_b97-3c_parallel
N          4.87250       -2.20973       -0.43847
C          4.13055       -1.61479        0.19374
C          3.02517       -0.71237        0.07254
C          2.73516        0.69878        0.01141
N          3.92235        1.38117       -0.04018
C          1.48175        1.41226       -0.03464
C          1.32565        2.38413       -1.07786
N          1.39606        3.52550       -1.06801
C          0.76816        0.17512        0.17949
C          1.60621       -0.92586        0.14905
C          1.07341       -2.19861        0.16418
C         -0.29966       -2.35658        0.13492
C         -1.19903       -1.26560        0.13011
C         -2.56795       -1.60636       -0.01321
N         -2.95956       -2.92208        0.03677
C         -3.63564       -0.77124       -0.33129
C         -3.70059        0.61022       -0.33557
N         -4.88679        1.17041       -0.72299
C         -2.74104        1.46882        0.16770
C         -1.41508        1.21316        0.50281
N         -0.85510        2.27214        1.17187
C         -0.65097        0.04526        0.25365
H          3.89448        2.35879       -0.31072
H          4.76331        0.85878       -0.26264
H          1.71811       -3.07440        0.13935
H         -0.63612       -3.38671        0.07443
H         -3.95283       -3.11994        0.08976
H         -2.33296       -3.58973        0.47131
H         -4.56982       -1.27120       -0.58832
H         -4.90496        2.16929       -0.89788
H         -5.53250        0.59571       -1.25340
H         -3.07427        2.49799        0.30320
H         -1.46491        3.01186        1.50269
H          0.01567        2.12375        1.66983
