28
Coordinates from ORCA-job ./opt_b97-3c_parallel
N          3.96466        1.49762       -0.16418
C          2.85393        0.72059       -0.00976
C          2.89425       -0.72037       -0.03394
C          1.72769       -1.56683       -0.01564
N          1.79340       -2.92078        0.13753
N          0.68582       -1.20109       -0.01611
C         -0.04098       -0.05917        0.01336
C          0.58906        1.20812        0.05409
C         -0.18640        2.37679        0.10711
C         -1.57988        2.32171        0.11389
C         -2.17759        1.07199        0.06300
C         -3.52371        0.76307        0.04919
C         -3.72408       -0.67103       -0.00912
C         -2.34970       -1.13629       -0.03777
N         -1.98572       -2.45014       -0.12503
C         -1.44425       -0.08091        0.01310
N          1.93538        1.33268        0.03606
H          4.84937        1.06676       -0.40783
H          3.86021        2.49371       -0.31888
H          3.86368       -1.18301        0.13344
H          0.94944       -3.43798        0.35629
H          2.68376       -3.35657        0.34954
H          0.30433        3.34629        0.14190
H         -2.17554        3.23041        0.15323
H         -4.26968        1.55366        0.07992
H         -4.59393       -1.18324       -0.40778
H         -1.01427       -2.66076       -0.33058
H         -2.68782       -3.13253       -0.38692
