29
Coordinates from ORCA-job ./opt_b97-3c_parallel
N          5.15164        1.54914       -0.16874
C          4.11965        1.06284       -0.10062
C          2.81440        0.45011       -0.03259
C          2.80893       -0.93743       -0.01056
C          1.71802       -1.79229        0.03153
C          2.02425       -3.20216        0.06038
N          2.26104       -4.31971        0.09587
C          0.36782       -1.45692        0.03390
C         -0.26144       -0.20534        0.03288
C          0.34413        1.07768        0.05243
C          1.72977        1.32453        0.01126
C         -0.50498        2.22297        0.10021
N         -0.03018        3.50761        0.16533
C         -1.89605        2.10925        0.08947
C         -2.46803        0.85417        0.03459
N         -3.78378        0.55243       -0.00393
C         -3.84062       -0.56968       -0.05405
N         -5.03443       -1.22096       -0.14817
C         -2.59764       -1.30302       -0.04142
C         -1.66434       -0.24044        0.01710
H          3.78789       -1.41780       -0.03074
H         -0.28923       -2.32183        0.04754
H          2.04323        2.36426       -0.00439
H         -0.68437        4.25327        0.37682
H          0.94423        3.65691        0.40077
H         -2.53026        2.99307        0.11747
H         -5.05212       -2.21194       -0.36069
H         -5.88001       -0.68498       -0.30829
H         -2.46435       -2.37800       -0.09980
