20
Coordinates from ORCA-job ./opt_b97-3c_parallel
C         -3.16685        1.19824        0.07592
C         -3.18259       -0.10340       -0.08966
C         -1.91199       -0.56312       -0.06825
C         -1.48964       -1.93374       -0.04046
N         -0.15963       -2.13457        0.01874
C          0.73474       -1.12459        0.04042
N          2.09096       -1.44914        0.07374
C          3.01239       -0.41939        0.07426
N          3.32518        0.92341        0.05125
C          2.19162        1.70797        0.00994
N          0.96010        1.31112        0.00409
C          0.22418        0.24268        0.01893
C         -1.11230        0.54685        0.01664
C         -1.89606        1.66231        0.21461
H         -4.05495        1.82678        0.09820
H         -4.07575       -0.70966       -0.22730
H         -2.16807       -2.80039       -0.06604
H          4.07283       -0.71450        0.10485
H          2.52881        2.75660       -0.01763
H         -1.59765        2.66183       -0.08661
