27
Coordinates from ORCA-job ./opt_b97-3c_parallel
N          3.18816       -1.92988       -0.10988
C          2.58336       -0.71642        0.03781
C          3.33943        0.49773        0.11150
C          2.79496        1.77941        0.09752
C          1.44102        2.12734        0.04554
C          0.30681        1.29588        0.02274
C         -0.92275        1.96885       -0.00668
C         -2.13673        1.29141       -0.01222
N         -3.31634        1.97797       -0.04718
C         -2.16911       -0.13956        0.02808
C         -3.03575       -1.30033        0.05701
C         -2.33739       -2.49273        0.07230
C         -1.00033       -2.19464        0.05960
C         -0.88325       -0.81231        0.03801
C          0.33309       -0.11357        0.03449
N          1.49086       -0.80034        0.04090
H          2.63016       -2.75094       -0.31530
H          4.18625       -1.97518       -0.27579
H          4.41838        0.37691        0.16431
H          3.50396        2.60234        0.13331
H          1.25771        3.19961        0.03732
H         -0.94073        3.05670       -0.02359
H         -3.29848        2.96759       -0.26689
H         -4.17119        1.46320       -0.22731
H         -4.12218       -1.29997        0.06891
H         -2.77371       -3.48800        0.09546
H         -0.18594       -2.91556        0.07221
