24
Coordinates from ORCA-job ./opt_b97-3c_parallel
N         -3.95292       -2.85310        0.01703
C         -3.31956       -1.90241        0.01110
C         -2.47808       -0.74758        0.00455
C         -3.20520        0.41426       -0.01814
N         -2.95350        1.72527       -0.03235
C         -1.67724        2.24856       -0.02432
C         -0.39871        1.59659       -0.00273
C          0.69036        2.54569       -0.00362
C          2.00885        2.12662        0.01466
C          2.26471        0.72101        0.03376
N          3.45363        0.13502        0.03527
C          3.08073       -1.20168        0.04064
N          3.83016       -2.01149        0.03511
N          1.79277       -1.42735        0.04396
C          1.23913       -0.25483        0.03217
C         -0.08652        0.17495        0.01656
C         -1.05508       -0.89499        0.01990
H         -4.30551        0.47021       -0.03093
H         -1.86285        3.33593       -0.03973
H          0.48108        3.61389       -0.01882
H          2.80863        2.86450        0.01373
H          3.65784       -3.01544       -0.01110
H          4.84165       -1.89254       -0.01334
H         -0.69693       -1.91977        0.03605
