31
Coordinates from ORCA-job ./opt_b97-3c_parallel
N          5.69294       -0.29579       -0.51708
C          4.56701       -0.35425       -0.32750
C          3.13611       -0.44339       -0.09582
C          2.68664       -1.75288       -0.05906
C          1.43552       -2.21860        0.28108
C          0.24472       -1.52503        0.44856
N         -0.72903       -2.34527        0.95607
C         -0.02011       -0.15704        0.19080
C          0.96735        0.87184        0.11894
C          0.48890        2.20436        0.04855
N         -0.79738        2.57912       -0.02384
C         -1.70102        1.59818       -0.04993
C         -3.07966        1.94784       -0.20101
C         -3.42092        0.54843       -0.16352
N         -4.78943        0.57794       -0.18514
C         -2.52594       -0.58574       -0.17189
C         -2.82779       -1.48828       -1.24311
N         -3.34312       -2.50723       -1.29154
C         -1.37521        0.25980        0.03908
C          2.38335        0.73141        0.09953
N          3.14294        1.87846        0.21295
H          3.43178       -2.53328       -0.21013
H          1.39157       -3.29863        0.41767
H         -1.56147       -1.92308        1.35239
H         -0.46097       -3.26183        1.29751
H          1.14470        3.06919       -0.00027
H         -3.57239        2.75175        0.33887
H         -5.28054       -0.28600       -0.39030
H         -5.24908        1.44818       -0.43016
H          4.14500        1.77598        0.33745
H          2.71148        2.70397        0.61238
