24
Coordinates from ORCA-job ./opt_b97-3c_parallel
N         -0.17647        3.09158        0.26562
C          0.02915        1.81519       -0.11689
C          1.39258        1.73765       -0.20097
C          1.96147        0.49338       -0.08092
N          3.23683        0.13525       -0.10034
C          3.11932       -1.23762        0.03657
N          1.93483       -1.77523        0.14344
C          1.21095       -0.70449        0.06217
C         -0.24291       -0.63006        0.03573
C         -0.90877       -1.84030        0.12006
C         -2.31787       -2.09132        0.09528
C         -3.34682       -1.19563       -0.05044
C         -3.25906        0.22199       -0.20741
C         -2.12968        1.00455       -0.21527
C         -0.78404        0.70655       -0.09253
H          0.60638        3.70187        0.49174
H         -0.95650        3.32814        0.87572
H          2.02937        2.60817       -0.34989
H          3.99038       -1.90968        0.05335
H         -0.33802       -2.75816        0.22318
H         -2.57815       -3.14083        0.19182
H         -4.35355       -1.60229       -0.05793
H         -4.20911        0.73337       -0.32032
H         -2.37610        2.05405       -0.34421
