25
Coordinates from ORCA-job ./opt_b97-3c_parallel
N         -4.34397        1.40118       -1.60702
C         -3.56472        0.73324       -1.10459
C         -2.62180       -0.12468       -0.45548
C         -2.88416       -1.52701       -0.32203
N         -2.02134       -2.45580        0.25332
C         -0.66558       -2.27832        0.52759
C          0.15092       -1.19884        0.24689
C          1.56152       -1.46463        0.26920
C          2.59013       -0.51345       -0.02309
C          3.92754       -1.01429        0.04686
N          4.98395       -1.44647        0.10644
C          2.12380        0.74874       -0.30074
N          2.79648        1.85560       -0.58399
C          1.76268        2.76736       -0.71230
N          0.53123        2.37202       -0.54040
C          0.74859        1.12134       -0.29097
C         -0.29236        0.15539        0.02118
C         -1.59402        0.51807        0.15255
N         -1.80277        1.11899        1.33878
H         -3.78538       -2.07805       -0.62951
H         -0.84818       -3.33380        0.77948
H          1.72646       -2.35044       -0.34284
H          2.23046        3.73711       -0.94059
H         -1.10368        1.76369        1.70315
H         -2.71856        1.51194        1.54851
