33
Coordinates from ORCA-job ./opt_b97-3c_parallel
N         -0.60345       -4.42484       -0.12542
C         -0.27904       -3.32871       -0.12153
C          0.14656       -1.94567       -0.12842
C          1.50946       -1.76538       -0.30243
C          2.14037       -0.48609       -0.23925
C          3.51648       -0.11431       -0.08195
N          4.61607       -0.92132       -0.13315
C          3.45521        1.29917        0.15218
C          2.10500        1.78155        0.23288
N          2.01788        3.06171        0.70230
C          1.27755        0.64928       -0.09487
C         -0.16851        0.45034       -0.15262
C         -0.85754        1.65896       -0.31751
C         -2.21565        1.95153       -0.29682
N         -2.55449        3.26212       -0.49829
C         -3.26645        1.08416       -0.04648
C         -3.21581       -0.28642        0.15587
N         -4.41960       -0.89407        0.38797
C         -2.10477       -1.12511        0.11162
C         -0.73259       -0.84130       -0.04582
H          2.18227       -2.61592       -0.39466
H          4.51161       -1.86786       -0.48159
H          5.53496       -0.49427       -0.17327
H          4.33436        1.92488        0.27358
H          2.85213        3.50690        1.06784
H          1.11713        3.39650        1.02736
H         -0.23667        2.53294       -0.49413
H         -1.84958        3.89667       -0.85791
H         -3.52855        3.49371       -0.65788
H         -4.25794        1.53475       -0.01461
H         -5.21832       -0.31365        0.61934
H         -4.42309       -1.85496        0.71238
H         -2.38436       -2.16574        0.24331
