24
Coordinates from ORCA-job ./opt_b97-3c_parallel
N         -2.79195        2.09271        0.11340
C         -2.37680        1.07751        0.03801
N         -3.42948        0.22015       -0.20621
C         -3.00897       -1.09085       -0.32567
N         -1.77688       -1.70532       -0.24064
C         -0.48112       -1.42233       -0.03600
N          0.44435       -2.41429       -0.01861
C          1.72964       -2.11440        0.25528
C          2.10495       -0.82486        0.59601
C          3.35352       -0.18136        0.30909
C          3.20727        1.10250       -0.10948
C          1.92437        1.42734       -0.09113
N          1.46880        2.63331       -0.46329
C          1.26942        0.32219        0.37504
C         -0.11173       -0.06915        0.15513
N         -1.01506        0.92745        0.18105
H         -3.73398        1.99946        0.48719
H         -2.22903        2.54100        0.83200
H         -3.71460       -1.91144       -0.52296
H          2.45288       -2.92149        0.15576
H          4.32148       -0.66521        0.39135
H          4.01990        1.75235       -0.42623
H          2.03834        3.46525       -0.32188
H          0.49464        2.88151       -0.29867
