29
Coordinates from ORCA-job ./opt_b97-3c_parallel
N          4.93549        1.75261       -0.27449
C          3.85887        1.61624        0.08361
C          2.89935        0.55142        0.06187
C          1.58636        0.99239        0.05473
C          0.36564        0.21433        0.03179
C          0.24976       -1.23192        0.00984
C          1.35447       -2.06189        0.01744
N          2.68118       -1.89612        0.03520
C          3.43027       -0.78922        0.05241
N          4.36643       -1.38106        0.05272
C         -1.03314       -1.79655       -0.01713
N         -1.18679       -2.89633       -0.04937
C         -2.22998       -0.96285       -0.00066
C         -3.57829       -1.46910       -0.00395
N         -4.58240       -1.80173       -0.43496
C         -2.02444        0.40741        0.02350
N         -3.09797        1.28477        0.04028
C         -2.68858        2.60143        0.06576
N         -2.99196        3.66091        0.08916
N         -1.52567        2.03512        0.04866
C         -0.78191        0.97920        0.03624
H          1.41980        2.06871        0.06629
H          1.51345       -3.15214        0.01358
H          5.02169       -0.60969       -0.09623
H          4.94953       -2.21418        0.14350
H         -2.11503       -3.23028        0.21399
H         -0.79176       -3.62871       -0.63898
H         -2.62878        4.61326        0.13591
H         -4.00835        3.75007        0.09389
