33
Coordinates from ORCA-job ./opt_b97-3c_parallel
N         -4.96621       -2.23712       -0.32160
C         -4.17463       -1.42087       -0.19995
C         -3.16858       -0.36963       -0.06238
C         -3.68382        0.88685        0.30585
N         -5.02141        1.02505        0.59729
C         -3.00276        2.09028        0.33449
C         -1.66549        2.34255        0.11203
C         -0.59594        1.46335       -0.04888
C          0.62807        2.14652       -0.11086
C          1.84394        1.49004       -0.18080
C          3.05682        2.26849       -0.23263
N          4.00944        2.89769       -0.27982
C          1.84833        0.10447       -0.13168
C          3.06584       -0.66534       -0.09502
C          4.48040       -0.67522       -0.31509
N          5.50710       -0.61449        0.18385
C          2.32317       -1.88353        0.11189
N          2.83125       -3.12966        0.35753
C          0.88961       -1.99641        0.14102
C          0.65064       -0.59546       -0.09169
C         -0.62731        0.04771       -0.13243
C         -1.81377       -0.73032       -0.29724
N         -1.65168       -1.99167       -0.83032
H         -5.41829        1.95410        0.68451
H         -5.64808        0.24413        0.43172
H         -3.59655        2.97834        0.54676
H         -1.42928        3.40482        0.15371
H          0.64984        3.23522       -0.09002
H          2.21016       -3.85943        0.68822
H          3.82094       -3.21338        0.56743
H          0.33237       -2.62579        0.82981
H         -2.47485       -2.49447       -1.14628
H         -0.76562       -2.22259       -1.26490
