26
Coordinates from ORCA-job ./opt_b97-3c_parallel
N         -1.26421        3.33044       -0.31147
C         -1.40265        2.20327       -0.17808
C         -1.60972        0.78281       -0.02907
C         -3.03192        0.56115       -0.06426
N         -3.75267       -0.26254        0.07099
C         -3.44477       -1.32098        0.08303
C         -2.25285       -2.11031       -0.06734
C         -0.94294       -1.61714       -0.08505
N          0.02308       -2.57578       -0.15392
C          1.32618       -2.22066       -0.14350
C          1.68814       -0.88681       -0.04550
C          2.99040       -0.31545        0.03708
N          4.26979       -0.78830       -0.00121
N          2.28682        0.56766        0.12075
C          1.44144        1.31698        0.19341
N          1.78963        2.61922        0.40664
C          0.74829        0.08122        0.01204
C         -0.62588       -0.22893       -0.02897
H         -3.83515        1.27786        0.07440
H         -4.37042       -1.59605        0.57687
H         -2.44855       -3.17964       -0.11173
H          2.06034       -3.02237       -0.19024
H          5.04469       -0.13709       -0.05050
H          4.44208       -1.75671       -0.24668
H          2.76307        2.88924        0.48397
H          1.07108        3.31906        0.56184
