24
Coordinates from ORCA-job ./opt_b97-3c_parallel
N          4.21334       -1.42298        0.47935
C          3.10926       -1.28857        0.21694
C          1.71369       -0.96301        0.13777
C          1.05488       -2.17671        0.06518
C         -0.37088       -2.11718       -0.00909
C         -1.27213       -3.12492       -0.12175
C         -2.45625       -2.54934       -0.25120
C         -2.35424       -1.22760       -0.19870
C         -1.03311       -0.92016       -0.01075
C         -0.39513        0.31523        0.08953
C         -1.11068        1.59281        0.23302
C         -2.49423        1.68172        0.58050
N         -3.59371        1.79803        0.87493
C         -0.49618        2.89399        0.02288
N          0.73600        3.17388       -0.44183
C          1.76245        2.32705       -0.42499
N          1.81264        1.28926        0.32910
C          1.05582        0.26197        0.15425
H          1.53660       -3.15261        0.05777
H         -1.06112       -4.19180       -0.13529
H         -3.38862       -3.08837       -0.40163
H         -3.18894       -0.55474       -0.35648
H         -1.03732        3.85160        0.05204
H          2.56375        2.93187       -0.87579
