28
Coordinates from ORCA-job ./opt_b97-3c_parallel
N          5.33175       -0.64125        0.08364
C          4.21617       -0.40329        0.03587
C          2.83235       -0.04403       -0.00919
C          1.82622       -1.06483       -0.03608
C          0.39569       -0.85366       -0.05765
C         -0.37891       -2.08917       -0.09097
N         -0.08885       -3.15514       -0.12517
C         -1.76457       -2.04295       -0.07815
C         -2.38984       -0.82669       -0.03424
N         -3.72843       -0.58192        0.00529
C         -3.74229        0.80956        0.04718
N         -4.75416        1.24890        0.10635
N         -2.57384        1.41550        0.02651
C         -1.74487        0.41584       -0.01487
C         -0.29702        0.42341       -0.03312
C          0.27797        1.74507       -0.02826
N          1.60399        2.15777       -0.04098
C          2.65331        1.32294       -0.02989
N          3.18070        2.30094       -0.03420
H          2.19629       -2.08747       -0.02927
H          0.72099       -3.40684       -0.69117
H         -0.51501       -4.03759        0.15875
H         -2.38142       -2.94408       -0.09514
H         -5.58119        0.65304        0.16297
H         -5.10056        2.20620        0.17693
H          0.03894        2.82022       -0.02135
H          3.36867        3.27721       -0.26908
H          4.10378        1.89177        0.12570
