30
Coordinates from ORCA-job ./opt_b97-3c_parallel
N         -4.86297        2.48548        0.10958
C         -3.96126        1.78649        0.05907
C         -2.80556        0.94753        0.00796
C         -1.58034        1.57401       -0.11608
C         -0.79496        0.45505       -0.12275
C         -1.47537       -0.71606       -0.00039
C         -0.77235       -1.98583       -0.00141
N         -0.83606       -3.08494        0.04409
N          0.34474       -1.83539       -0.08005
C          1.07798       -0.98411       -0.20739
C          2.39482       -1.34907       -0.32281
C          3.44771       -0.55192        0.04010
N          4.44355       -0.93885        0.33634
N          3.72263        0.80797        0.11830
C          2.63536        1.62612       -0.16369
N          2.78959        2.72028       -0.17380
N          1.38354        1.40576       -0.41806
C          0.58235        0.39606       -0.26044
C         -2.86668       -0.49080        0.09227
N         -3.66018       -1.25191        0.19317
H         -1.33478        2.42793        0.51103
H         -1.82775       -2.85166        0.00100
H         -0.75819       -4.05764       -0.24885
H          2.61901       -2.30750       -0.79667
H          4.40431       -1.91380        0.64218
H          5.43859       -0.70403        0.35016
H          2.05958        3.40135       -0.38822
H          3.65713        3.25792       -0.14941
H         -3.98029       -2.12543        0.61014
H         -4.50129       -0.72265       -0.03632
