32
Coordinates from ORCA-job ./opt_b97-3c_parallel
N          2.81422       -4.07008        0.11840
C          2.47156       -2.97975        0.10275
C          2.02393       -1.60831        0.08754
C          3.18018       -0.75870       -0.00885
N          3.42179        0.31755       -0.05452
C          2.66676        1.10944        0.07994
N          3.49440        2.09100       -0.40314
C          1.23575        1.25437        0.21570
C          0.93793        2.51734        0.85773
N          0.71801        3.50705        1.38637
C          0.30544        0.19670        0.11760
C          0.68183       -1.17650        0.10234
C         -0.32309       -2.16801        0.13769
C         -1.67806       -1.84079        0.14068
N         -2.62778       -2.82389        0.16142
C         -2.01891       -0.49606        0.07824
C         -3.31537        0.09323       -0.02669
N         -4.63719       -0.23626        0.04565
N         -2.61123        0.97098       -0.12670
C         -1.75608        1.70283       -0.21340
N         -1.75818        2.98546       -0.67946
C         -1.07450        0.47528        0.06185
H          4.11740       -0.95077       -0.52151
H          3.18217        3.05548       -0.36079
H          4.49464        1.92939       -0.43470
H         -0.06705       -3.22316        0.15942
H         -2.34023       -3.78793        0.03429
H         -3.58545       -2.57634       -0.06221
H         -5.33085        0.50051        0.10037
H         -4.89740       -1.15436        0.38861
H         -2.62784        3.50214       -0.73817
H         -0.89020        3.51123       -0.69151
