26
Coordinates from ORCA-job ./opt_b97-3c_parallel
N          3.57148        2.48811        0.01429
C          2.86683        1.58705        0.00514
C          1.98357        0.41915       -0.00072
C          2.67234       -0.80879       -0.07528
N          4.04468       -0.82454       -0.18066
C          2.13824       -2.08306       -0.04831
C          0.82385       -2.47411        0.06128
C         -0.34154       -1.71688        0.11932
C         -1.47511       -2.60786        0.25991
N         -2.34714       -3.33902        0.37324
C         -0.48767       -0.30267        0.07395
C          0.57835        0.66264        0.04910
N          0.27066        2.00206        0.06475
C         -0.98435        2.47149        0.07801
C         -2.03545        1.58743        0.06366
C         -3.42877        1.88957        0.04105
N         -3.36046        0.76577        0.02368
C         -3.11031       -0.33107        0.01456
C         -1.80245        0.25450        0.06222
H          4.54501       -1.70256       -0.09735
H          4.56246        0.04328       -0.08341
H          2.84666       -2.90896       -0.10084
H          0.70864       -3.55840        0.09595
H         -1.11836        3.55140        0.08179
H         -3.91222        2.85210       -0.07604
H         -3.57461       -0.89459       -0.78669
