30
Coordinates from ORCA-job ./opt_b97-3c_parallel
N         -3.45092        2.87030       -0.04014
C         -2.79793        1.93189       -0.00413
C         -1.97459        0.73188        0.02051
C         -2.70732       -0.48741       -0.03347
N         -4.08165       -0.45883       -0.08532
C         -2.19662       -1.78714       -0.03716
C         -0.82455       -2.18215        0.01828
N         -0.43854       -3.48134        0.17206
N         -0.02178       -1.44789        0.00839
C          0.37358       -0.17037        0.02389
C         -0.55496        0.90266        0.06213
C         -0.02198        2.21868        0.13488
C          1.34518        2.47872        0.14249
C          2.20948        1.40631        0.07374
C          3.58911        1.41851        0.05059
C          4.10836        0.06877       -0.01246
C          2.87536       -0.69538       -0.05057
N          2.84256       -2.05600       -0.16705
C          1.74904        0.12333        0.01578
H         -4.58282       -1.31174       -0.30729
H         -4.54634        0.42763       -0.25445
H         -2.86549       -2.64543       -0.07534
H         -1.13672       -4.19219        0.35745
H          0.52561       -3.69211        0.40926
H         -0.65461        3.09844        0.19154
H          1.71927        3.49867        0.19707
H          4.12941        2.36167        0.08089
H          5.09230       -0.23940       -0.35095
H          3.68997       -2.53736       -0.44646
H          1.95246       -2.49214       -0.38433
