29
Coordinates from ORCA-job ./opt_b97-3c_parallel
N          5.02872        1.91888        0.10692
C          4.14513        1.19773        0.02796
C          3.02970        0.27089       -0.05661
C          3.44368       -1.01365       -0.37943
C          2.69948       -2.17251       -0.40962
C          1.35074       -2.34214       -0.16293
C          0.33291       -1.39546        0.03699
C         -0.97394       -1.93663        0.19553
N         -1.23998       -3.27438        0.30587
N         -2.10277       -1.21106        0.26677
C         -1.96882        0.11267        0.15582
C         -3.13782        0.96507        0.10084
C         -4.54062        0.85463       -0.14172
N         -5.68336        0.83652       -0.10494
C         -2.42572        2.19893       -0.16211
C         -1.05034        2.06056       -0.19075
C         -0.74456        0.73414        0.04189
C          0.48558        0.02163        0.06557
C          1.71404        0.73680        0.16244
N          1.65086        2.03592        0.61067
H          4.50615       -1.15638       -0.57507
H          3.25692       -3.08162       -0.62478
H          1.07552       -3.39056       -0.20803
H         -2.17032       -3.54657        0.60382
H         -0.47543       -3.90088        0.52792
H         -2.87849        3.16708       -0.36263
H         -0.37052        2.87079       -0.43533
H          0.79489        2.34660        1.05612
H          2.51366        2.49078        0.88995
