30
Coordinates from ORCA-job ./opt_b97-3c_parallel
N          5.40404        1.22712       -0.46160
C          4.29398        1.02868       -0.27532
C          2.88875        0.76635       -0.05734
C          2.23193        2.02085        0.13608
N          1.14692        2.10440        0.16157
C         -0.03396        1.48241        0.16517
C         -1.16359        2.31398        0.17145
C         -2.45109        1.79159        0.11969
N         -3.54305        2.61628        0.10686
C         -2.57283        0.41331        0.02007
C         -3.76345       -0.34685       -0.18723
N         -2.93548       -1.11025       -0.25112
C         -1.98094       -1.69950       -0.33444
N         -2.05517       -2.98512       -0.78549
C         -1.48625       -0.40503        0.02878
C         -0.15677        0.07189        0.15853
C          0.95449       -0.81933        0.28008
C          0.68675       -2.18780        0.69170
N          0.51148       -3.26152        1.04337
C          2.33737       -0.51229        0.12885
N          3.25006       -1.54689        0.13427
H          2.44840        2.97935       -0.32206
H         -1.03179        3.39415        0.20211
H         -3.41520        3.59326        0.34440
H         -4.45925        2.20788        0.25171
H         -4.74823       -0.00193       -0.47751
H         -1.20446       -3.53143       -0.87090
H         -2.94110       -3.47589       -0.77465
H          2.94709       -2.46391        0.44698
H          4.23865       -1.32698        0.18900
