29
Coordinates from ORCA-job ./opt_b97-3c_parallel
N         -4.64991       -2.68668        0.62329
C         -3.81465       -1.92808        0.45285
C         -2.79173       -0.94837        0.25269
C         -1.39972       -1.33164        0.25262
C         -0.65645       -0.12755        0.03811
C         -1.54503        0.87724       -0.03430
C         -1.10896        2.21855       -0.18689
N         -1.30508        3.29684       -0.29903
N          0.23686        2.54929       -0.19294
C          1.15745        1.55160       -0.07263
N          2.45030        2.05937       -0.11392
C          3.50889        1.27216        0.24267
N          3.64748        0.08670        0.71684
C          3.09919       -0.88534        0.07403
N          4.03759       -1.46957        0.02871
C          1.68864       -1.02448       -0.18091
C          1.27064       -2.30004       -0.68125
N          0.96678       -3.31324       -1.11177
C          0.77572        0.11609       -0.01092
C         -2.89541        0.42203        0.06749
N         -3.78308        1.07889        0.02571
H         -1.03359       -2.33408        0.43845
H         -2.25297        2.94538       -0.43406
H         -1.28313        4.23146       -0.70512
H          4.57069        1.56347        0.27764
H          3.71202       -2.33341       -0.40393
H          5.05588       -1.51206        0.01715
H         -4.30738        1.89655        0.33725
H         -4.47896        0.35217       -0.14763
