27
Coordinates from ORCA-job ./opt_b97-3c_parallel
N          4.15119        0.98281       -0.05022
C          3.17771        0.47472       -0.01605
N          3.57888       -0.84671       -0.02233
C          2.50195       -1.71579        0.01635
N          1.21070       -1.60374        0.05575
C          0.38568       -0.60188        0.04852
C          0.87138        0.70416        0.03114
C         -0.08879        1.79809        0.01577
C         -1.46974        1.57993        0.00743
N         -2.10823        2.48098        0.00664
C         -1.90451        0.21060        0.01930
C         -3.16184       -0.33869       -0.03357
N         -4.19991        0.03178       -0.08880
C         -2.95441       -1.70135       -0.02003
C         -1.65611       -2.01068        0.02799
C         -0.97386       -0.84001        0.04597
N          2.08479        1.16882        0.01759
H          5.08740        0.58577       -0.07402
H          4.24781        1.99398       -0.10302
H          2.94472       -2.72317        0.00914
H          0.30414        2.81635        0.01309
H         -1.92386        3.46291        0.20263
H         -2.95100        2.22798        0.52037
H         -4.12029        0.90895       -0.60093
H         -5.10483       -0.36971       -0.32613
H         -3.74813       -2.44695       -0.04227
H         -1.23162       -3.01142        0.05271
