28
Coordinates from ORCA-job ./opt_b97-3c_parallel
N          4.30290        0.88753        0.03659
C          3.20219        0.74268        0.02511
C          2.30539        1.79289        0.00047
C          0.85641        1.56950       -0.00443
N          0.44052        2.59604       -0.01736
C          0.18495        0.33591       -0.01104
C          0.81429       -0.97794       -0.03883
C          2.17798       -1.13604       -0.00874
N          3.32289       -0.54378        0.04485
C          0.01109       -2.18780       -0.09808
N          0.02217       -3.28838       -0.14676
N         -1.33653       -2.11028       -0.08708
C         -1.96825       -0.92927       -0.02873
N         -3.31705       -0.66967        0.01345
C         -3.44288        0.72144        0.07504
N         -4.33845        1.36781        0.13475
N         -2.17940        1.31992        0.06522
C         -1.26857        0.28753        0.00140
H          5.14697        0.34644        0.24109
H          4.65304        1.82778       -0.15916
H          2.70967        2.81063       -0.00925
H         -0.50962        2.95974       -0.07911
H          1.02929        3.42925       -0.07085
H          2.78461       -2.05724       -0.01187
H          0.85187       -3.63487       -0.62952
H         -0.54889       -4.11613        0.03342
H         -4.44173        2.38403        0.17526
H         -5.29161        1.00554        0.21147
