27
Coordinates from ORCA-job ./opt_b97-3c_parallel
N          5.53520       -0.81855        0.03186
C          4.39982       -0.72711        0.05100
C          2.98043       -0.55517        0.06501
C          2.33763       -1.76599       -0.03027
N          1.06077       -2.17452       -0.04068
C         -0.02377       -1.31006        0.00795
N         -1.16250       -2.12420        0.00451
C         -2.41803       -1.53346        0.04921
N         -3.09062       -2.42003        0.06512
C         -2.55205       -0.09674        0.04075
C         -3.68317        0.78769       -0.02496
N         -3.28703        2.06777       -0.07848
C         -1.94533        2.07271       -0.04110
N         -1.92095        3.18501       -0.10770
C         -1.42093        0.71921        0.03539
C         -0.07255        0.15136        0.06195
N          1.01613        0.95724        0.14495
C          2.35313        0.73803        0.17404
N          2.81549        1.74580        0.26866
H          2.81123       -2.76022       -0.10806
H         -4.11377       -2.41899       -0.01631
H         -2.88503       -3.41735        0.19123
H         -4.77526        0.93501       -0.05618
H         -2.66395        3.82253        0.20500
H         -1.27136        3.82524       -0.57446
H          3.75799        1.67669       -0.13354
H          2.88710        2.57651        0.86491
