28
Coordinates from ORCA-job ./opt_b97-3c_parallel
N         -5.09170        1.37579        0.06651
C         -4.07090        0.86299        0.03714
C         -2.76787        0.22764        0.00246
C         -1.70039        1.12603        0.00422
C         -0.31977        0.91226       -0.03203
C          0.43685        2.09605       -0.02715
N          1.78182        2.14847       -0.07076
C          2.42584        0.97097       -0.11426
C          3.85599        0.96148       -0.17183
C          3.79075       -0.47852       -0.16242
N          5.02128       -1.06823       -0.09072
C          2.66789       -1.38255       -0.15427
C          1.77941       -0.25211       -0.11108
C          0.36956       -0.31709       -0.07430
C         -0.21898       -1.58740       -0.08559
C         -1.55695       -1.95698       -0.06315
C         -2.70493       -1.17271       -0.02907
N         -3.87463       -1.89168       -0.03179
H         -1.99904        2.17368        0.03399
H         -0.04193        3.07356        0.00712
H          4.50515        1.57963        0.44017
H          5.84727       -0.49819       -0.23781
H          5.09652       -2.06911       -0.23522
H          2.58503       -2.27160        0.46254
H          0.44326       -2.44587       -0.12253
H         -1.71873       -3.03365       -0.08026
H         -4.75198       -1.40808        0.12907
H         -3.84152       -2.89506        0.11236
