32
Coordinates from ORCA-job ./opt_b97-3c_parallel
N         -4.59122        1.77867        0.39354
C         -3.52856        1.37070        0.27760
C         -2.17695        0.87281        0.13413
C         -1.07585        1.74121       -0.03089
N         -1.33450        3.08839        0.04658
C          0.25233        1.23419       -0.17678
C          1.37747        2.08119       -0.40539
N          1.25120        3.36194       -0.87593
C          2.70729        1.68608       -0.21353
C          3.10728        0.43130        0.36855
N          4.02533        0.35802        1.37555
N          2.69851       -0.56739        0.12645
C          1.70488       -0.81779       -0.28940
N          1.95526       -1.71014       -1.29595
C          0.42530       -0.17232       -0.10688
C         -0.69268       -0.97761        0.08670
C         -0.81677       -2.38242        0.18528
C         -0.28045       -3.70495        0.23624
N          0.52654       -4.51336        0.20255
C         -2.25436       -2.43544        0.33040
N         -2.86618       -1.49044        0.33740
C         -1.95833       -0.50031        0.18701
H         -0.55633        3.70548        0.25592
H         -2.25606        3.38121        0.35549
H          0.35842        3.63343       -1.27456
H          2.08038        3.82926       -1.22503
H          3.53134        2.36445       -0.42612
H          4.37588       -0.54625        1.67244
H          4.54537        1.18569        1.64639
H          1.17647       -2.14963       -1.77224
H          2.84126       -2.20336       -1.30190
H         -2.91189       -3.28925        0.45028
