26
Coordinates from ORCA-job ./opt_b97-3c_parallel
N          1.30075        4.33479       -0.06356
C          0.78460        3.31480       -0.04912
C          0.11337        2.03633       -0.03306
C         -1.28468        2.03389       -0.04969
C         -1.93797        0.80817       -0.03234
C         -3.33513        0.53179       -0.03904
N         -2.83928       -0.48710       -0.01409
C         -2.20184       -1.42334        0.00938
N         -2.18814       -2.78590        0.04906
C         -1.25603       -0.35589       -0.00547
C          0.14044       -0.40527        0.00949
N          0.78286       -1.59682        0.03138
C          1.79114       -2.04600        0.04391
N          1.81637       -3.39881       -0.12914
C          2.98730       -1.24752        0.13039
C          3.09094        0.18844        0.06147
N          2.19397        0.83470        0.02822
C          0.83919        0.82445        0.00038
H         -1.84980        2.96305       -0.07336
H         -4.16535        1.22603        0.00634
H         -1.30704       -3.26368        0.20464
H         -3.04715       -3.29527        0.22007
H          0.96368       -3.88635       -0.37935
H          2.69929       -3.86487       -0.30389
H          4.00144       -1.62701        0.22241
H          3.95373        0.81411        0.25459
