26
Coordinates from ORCA-job ./opt_b97-3c_parallel
N          2.73675        1.19353        0.82636
C          2.03147        0.41351       -0.05224
N          2.85356       -0.29555       -0.25966
C          2.79866       -1.39741       -0.33983
C          1.79334       -2.36983       -0.00540
C          0.43472       -2.07429        0.12427
C         -0.14259       -0.79670        0.00693
C          0.58465        0.40793       -0.12933
C         -0.12347        1.61752       -0.31236
N          0.51596        2.81121       -0.49481
N         -1.47440        1.70404       -0.32877
C         -2.15099        0.55391       -0.15442
C         -3.59613        0.49965       -0.14820
C         -3.73710       -0.93428        0.04473
C         -2.52739       -1.60572        0.13099
C         -1.53462       -0.66539        0.00806
H          3.74996        1.16299        0.82314
H          2.28559        1.99867        1.24652
H          3.85179       -1.55696       -0.53978
H          2.14102       -3.39531        0.09154
H         -0.21740       -2.92537        0.29520
H         -0.02946        3.60448       -0.81208
H          1.50874        2.79788       -0.70164
H         -4.26733        1.26152        0.23436
H         -4.67223       -1.48375        0.11822
H         -2.40562       -2.67652        0.26916
