28
Coordinates from ORCA-job ./opt_b97-3c_parallel
N          1.60883        3.06609        0.96707
C          1.52858        1.98984        0.58652
C          1.45505        0.61368        0.12512
C          2.72587       -0.02379        0.01510
N          3.87867        0.70862        0.17199
C          2.98367       -1.37081       -0.25125
C          2.04425       -2.43701       -0.38284
N          0.98945       -2.24174       -0.20085
C         -0.02147       -1.38933       -0.01807
C         -1.28409       -1.97728        0.10913
C         -2.43532       -1.22017        0.26155
N         -3.64803       -1.81848        0.44940
C         -2.33883        0.20301        0.21669
C         -3.20480        1.32493       -0.07295
C         -2.49602        2.42471       -0.50509
C         -1.16664        2.09421       -0.50838
C         -1.03309        0.78443       -0.05012
C          0.16020        0.01317        0.00985
H          3.80602        1.64527        0.55650
H          4.75356        0.21302        0.30113
H          4.00086       -1.74891       -0.33279
H          2.20334       -3.43330       -0.77773
H         -1.36650       -3.06280        0.10763
H         -3.72614       -2.82813        0.40008
H         -4.49103       -1.25519        0.43487
H         -4.28979        1.36310       -0.01800
H         -2.91900        3.37516       -0.82086
H         -0.38768        2.74763       -0.88871
