27
Coordinates from ORCA-job ./opt_b97-3c_parallel
N          2.91357       -2.66335       -1.55148
C          2.46428       -1.72237       -1.08297
C          1.90080       -0.56562       -0.45808
C          2.75446        0.34273        0.28306
N          3.70830        0.72360        0.68721
N          2.35692        1.58420        0.63633
C          1.25178        2.15863        0.13412
N          0.40496        1.84658       -0.79308
C         -0.22815        0.74337       -0.50042
C          0.45992       -0.45704       -0.28249
C         -0.26437       -1.58563        0.11436
C         -1.64745       -1.53834        0.27053
N         -2.33290       -2.66176        0.63506
C         -2.38179       -0.31959        0.04191
C         -3.69017        0.03080        0.13118
C         -3.75621        1.32609       -0.17742
C         -2.56358        1.84825       -0.46479
C         -1.66019        0.84195       -0.33878
H          4.33417        1.44785        0.33992
H          3.99212       -0.14821        0.24544
H          1.47135        3.04414        0.74901
H          0.25338       -2.52399        0.30191
H         -3.34340       -2.65905        0.55012
H         -1.85574       -3.55579        0.59862
H         -4.52068       -0.61722        0.39986
H         -4.68250        1.89524       -0.19311
H         -2.35428        2.87808       -0.74365
