28
Coordinates from ORCA-job ./opt_b97-3c_parallel
N          3.95212       -3.10848        0.03934
C          3.42544       -2.09555        0.00176
C          2.72027       -0.84958       -0.03140
C          3.60989        0.19692       -0.12332
C          3.30135        1.59126       -0.14440
C          2.06880        2.18806       -0.06542
C          0.76787        1.57227        0.00205
C         -0.23834        2.61863        0.06802
N         -0.64781        3.64263        0.10522
N         -1.54199        2.29319        0.10502
C         -1.92056        1.01097        0.07550
N         -3.21718        0.54428        0.07317
C         -3.13352       -0.83764        0.00527
N         -4.15482       -1.26735       -0.01583
C         -1.75139       -1.24565       -0.03336
C         -1.37250       -2.61799       -0.15561
N         -1.11553       -3.72512       -0.26003
C         -0.96383       -0.03411        0.02157
C          0.41188        0.22313        0.00491
C          1.28563       -0.85112        0.01450
H          4.67563       -0.02201       -0.17422
H          4.16200        2.25114       -0.21181
H          2.07423        3.27551       -0.07256
H         -1.16394        4.51248       -0.02647
H          0.28349        3.91184        0.42100
H         -4.17716       -2.28958       -0.03210
H         -5.13420       -0.97913       -0.06967
H          0.91627       -1.85821        0.08196
