30
Coordinates from ORCA-job ./opt_b97-3c_parallel
N          5.21841        1.49770       -0.38466
C          4.20481        0.98164       -0.27966
C          2.94838        0.30592       -0.18022
C          1.74127        0.84549       -0.46990
C          0.91319       -0.18597       -0.07680
C          1.51346       -1.41462        0.13100
C          0.71598       -2.47624        0.44300
N         -0.61311       -2.42946        0.59588
C         -1.26385       -1.25675        0.48055
N         -2.55808       -1.34662        0.50626
C         -3.23973       -0.72260       -0.40723
N         -3.81106       -1.37431       -1.08879
C         -3.52716        0.47771        0.18114
C         -2.58457        1.40019        0.41017
N         -2.89795        2.49690        1.12917
C         -1.26967        1.20633        0.00500
C         -0.72626        2.41178       -0.55977
N         -0.31275        3.38843       -0.98509
C         -0.52396       -0.04604        0.15181
C          2.82414       -1.05709        0.15852
N          3.52933       -1.86859        0.41794
H          1.60419        1.33316       -1.43281
H          1.19142       -3.46289        0.55500
H         -4.55221       -0.83173       -1.53137
H         -4.09777       -2.35095       -1.14770
H         -4.54266        0.65325        0.53551
H         -3.86408        2.81900        1.18263
H         -2.30486        3.32631        1.08918
H          4.30127       -1.35073       -0.00167
H          3.94687       -2.69082        0.85229
