31
Coordinates from ORCA-job ./opt_b97-3c_parallel
N          4.04175        2.15662       -0.06230
C          3.12767        1.14555       -0.01242
C          3.49106       -0.24979       -0.02952
C          2.50971       -1.30603       -0.02452
N          2.83396       -2.62732        0.06970
N          1.41237       -1.18245       -0.03001
C          0.47685       -0.20490       -0.01971
C          0.82045        1.16624        0.00088
C         -0.19260        2.13767        0.01625
C         -1.54291        1.77845        0.01399
N         -2.51974        2.73497        0.02108
C         -1.85092        0.41982       -0.00313
C         -3.12252       -0.22657        0.00417
N         -4.46376        0.00684        0.09002
N         -2.38592       -1.08638       -0.03862
C         -1.51139       -1.80582       -0.06042
N         -1.17309       -3.12609       -0.13201
C         -0.88395       -0.52508       -0.02520
N          2.10982        1.57421        0.00071
H          5.01841        1.94669       -0.23324
H          3.72661        3.11142       -0.19170
H          4.53803       -0.51184        0.10117
H          3.79363       -2.89804        0.25394
H          2.10530       -3.30929        0.24650
H          0.08010        3.19067        0.02914
H         -3.46870        2.45189       -0.19737
H         -2.25820        3.69739       -0.16230
H         -4.78855        0.93577        0.33370
H         -5.09268       -0.77070        0.25575
H         -0.20509       -3.37591       -0.30047
H         -1.88678       -3.81533       -0.33967
