32
Coordinates from ORCA-job ./opt_b97-3c_parallel
N          5.05990        2.15682        0.63773
C          4.07757        1.61718        0.41245
C          2.82106        0.94394        0.13900
C          1.77695        1.82613       -0.10857
C          0.40714        1.59242       -0.19034
C         -0.34750        2.77645       -0.17355
N         -1.68772        2.82931       -0.10709
C         -2.32214        1.65094       -0.04677
C         -3.74018        1.64806        0.14000
C         -3.71424        0.20732        0.17137
N         -5.02898       -0.13999        0.32882
C         -2.57398       -0.67938        0.12815
C         -2.55906       -1.69047        1.14294
N         -2.70220       -2.82523        1.13735
C         -1.67995        0.42660       -0.11962
C         -0.26522        0.35318       -0.26395
C          0.36391       -0.88796       -0.53067
N         -0.40824       -1.83578       -1.16993
C          1.70363       -1.26972       -0.26932
C          2.01142       -2.68849       -0.42707
N          2.25945       -3.79767       -0.55964
C          2.77847       -0.45884        0.15657
N          3.94829       -1.09369        0.53063
H          2.06734        2.87717       -0.11182
H          0.13002        3.75554       -0.16502
H         -4.45283        2.26150       -0.40384
H         -5.69091        0.57960        0.59797
H         -5.24056       -1.09631        0.59495
H         -0.05918       -2.78322       -1.27463
H         -1.38775       -1.65479       -1.35641
H          4.77519       -0.54935        0.75299
H          4.01920       -2.10457        0.47502
