28
Coordinates from ORCA-job ./opt_b97-3c_parallel
N         -0.78765       -2.99059       -0.35731
C         -0.04144       -1.85109       -0.21457
C          1.34620       -1.98375       -0.20385
C          2.12716       -0.84745       -0.07176
N          3.47554       -0.79260       -0.07157
C          3.75143        0.29474        0.00681
C          2.66499        1.23996        0.08789
C          1.53936        0.37886        0.04611
C          0.14660        0.59149        0.03121
C         -0.41523        1.89224        0.12793
N          0.34125        2.97002        0.49482
C         -1.75462        2.19601       -0.14081
C         -2.72154        1.25340       -0.63659
N         -2.87252        0.18390       -0.40020
C         -2.09173       -0.50313       -0.02875
N         -2.84344       -1.13301        0.92722
C         -0.64620       -0.58091       -0.08487
H         -1.77955       -2.89670       -0.54996
H         -0.32381       -3.84816       -0.63522
H          1.81481       -2.96025       -0.30452
H          4.81963        0.47382       -0.01969
H          2.75312        2.31966        0.11793
H          1.22975        2.79476        0.94976
H         -0.13703        3.83440        0.72296
H         -2.13445        3.21081       -0.04291
H         -3.66379        1.45180       -1.13336
H         -3.85456       -1.07778        0.88063
H         -2.43511       -1.90262        1.44585
