20
Coordinates from ORCA-job ./opt_b97-3c_parallel
C         -2.43119        1.70344       -0.00531
C         -3.22900        0.60875       -0.00267
N         -3.32957       -0.75817       -0.00015
C         -2.12692       -1.43639        0.00109
C         -0.77770       -0.91557       -0.00051
C          0.15777       -2.01275       -0.00118
N          1.49136       -1.84505       -0.00113
C          1.97578       -0.58986       -0.00080
N          3.28700       -0.19244       -0.00088
C          3.24754        1.19970       -0.00040
N          1.93796        1.67523       -0.00009
C          1.14292        0.55771       -0.00020
C         -0.29439        0.40228        0.00016
C         -1.07383        1.62341        0.00323
H         -2.89759        2.68647       -0.00638
H         -4.30657        0.83692       -0.00230
H         -2.62329       -2.41964        0.00105
H         -0.03900       -3.09614       -0.00091
H          4.12756        1.86218       -0.00037
H         -0.54992        2.57506        0.01058
