34
Coordinates from ORCA-job ./opt_b97-3c_parallel
N          5.58353        0.28090        0.23361
C          4.44677        0.16210        0.20150
C          3.00621        0.02599        0.13401
C          2.55333       -1.28519       -0.27660
N          3.17133       -2.05859       -1.22272
N          1.64052       -1.86212       -0.03463
C          0.69305       -1.45409        0.36221
N          0.40602       -2.28305        1.41221
C          0.01770       -0.19458        0.14936
C          0.72238        1.02971        0.22768
C         -0.02421        2.22049        0.14185
C         -1.39898        2.21067       -0.08502
C         -2.10132        3.46448       -0.20702
N         -2.65966        4.45798       -0.29242
C         -2.06188        0.99226       -0.21816
C         -3.46694        0.87936       -0.48411
C         -3.32450       -0.54856       -0.34228
N         -4.62023       -0.99345       -0.38658
C         -2.15506       -1.39042       -0.22110
C         -2.13005       -2.73441       -0.71244
N         -2.28697       -3.78294       -0.28166
C         -1.36646       -0.19508       -0.08934
C          2.13384        1.11133        0.35741
N          2.70771        2.32315        0.66359
H          2.88519       -3.02550       -1.32989
H          4.10923       -1.81427       -1.52084
H         -0.48054       -2.17758        1.89314
H          0.83692       -3.20094        1.43963
H          0.46298        3.19081        0.20290
H         -4.23884        1.50666       -0.04586
H         -4.78520       -1.99021       -0.48255
H         -5.34613       -0.35953       -0.70217
H          3.69696        2.33677        0.89064
H          2.12502        3.03633        1.08766
