32
Coordinates from ORCA-job ./opt_b97-3c_parallel
N         -4.51983       -2.57706        0.12261
C         -3.69713       -1.78363        0.10377
C         -2.64748       -0.79379        0.05990
C         -1.32568       -1.23637        0.16370
C         -0.16100       -0.44826        0.08436
C         -0.14169        0.96669        0.00229
C         -1.37380        1.71542        0.14876
N         -1.52857        2.73471        1.05211
N         -2.45315        1.54582       -0.02489
C         -2.99319        0.59003       -0.16478
N         -4.20756        1.00575       -0.63983
C          1.08214        1.65744       -0.18248
N          1.10114        3.02186       -0.33567
C          2.29486        0.95005       -0.22057
C          3.57453        1.59683       -0.39912
N          4.59170        2.09554       -0.54315
C          2.22967       -0.42665       -0.07666
C          3.23209       -1.41852       -0.08078
C          2.41972       -2.60210        0.06772
N          2.98023       -3.84314        0.11923
N          1.30711       -2.44908        0.13657
C          1.06775       -1.11861        0.06140
H         -1.19960       -2.31160        0.27178
H         -2.40145        3.25025        1.07513
H         -0.70069        3.20320        1.40503
H         -4.95963        0.33069       -0.73004
H         -4.45936        1.98529       -0.57436
H          1.96972        3.46846       -0.61178
H          0.23103        3.49694       -0.55235
H          4.31185       -1.34345       -0.16117
H          3.96747       -3.96486       -0.07505
H          2.38304       -4.66269        0.10659
