32
Coordinates from ORCA-job ./opt_b97-3c_parallel
N         -4.78416       -1.55512       -0.90977
C         -3.85859       -0.93930       -0.64267
C         -2.67995       -0.17656       -0.28679
C         -2.95103        1.09515        0.34567
N         -3.93919        1.31037        1.26723
N         -2.47351        2.08717        0.26048
C         -1.47612        2.24453       -0.19036
C         -0.22821        1.51819       -0.13944
C          0.96034        2.27351       -0.06607
N          0.93482        3.64036       -0.00951
C          2.20121        1.64603       -0.06499
C          2.23076        0.26207       -0.06249
C          3.33839       -0.55849        0.07264
C          4.71140       -0.14464        0.20092
N          5.79751        0.19565        0.30286
C          2.87685       -1.85524        0.19778
C          1.49042       -1.83311        0.11239
C          0.70789       -2.98584        0.48456
N          0.10306       -3.90489        0.79413
C          1.07620       -0.50633       -0.10650
C         -0.19841        0.10004       -0.23399
C         -1.37225       -0.63861       -0.53910
N         -1.25940       -1.79500       -1.26827
H         -4.17809        2.26285        1.51914
H         -4.64988        0.59924        1.40166
H         -1.68891        3.20085       -0.65514
H          1.79586        4.13503        0.19934
H          0.05782        4.10247        0.20699
H          3.12034        2.22503       -0.00916
H          3.48832       -2.72869        0.41369
H         -2.08179       -2.36499       -1.43795
H         -0.34393       -2.18148       -1.46800
