29
Coordinates from ORCA-job ./opt_b97-3c_parallel
N         -2.86983        2.73772        0.47112
C         -2.53748        1.65612        0.33028
C         -2.19567        0.27764        0.16214
C         -3.09603       -0.75505        0.19242
N         -4.19306       -0.90559        0.26758
N         -2.56376       -1.98772        0.15820
C         -1.18699       -1.79167        0.10598
N         -0.15261       -2.71685        0.09900
C          1.14133       -2.23377        0.05070
C          1.46826       -0.83276       -0.04228
C          2.87539       -0.64503        0.12368
N          3.66301       -1.14654       -0.47079
C          3.31204        0.38435        0.88888
C          3.18682        1.61708        0.32768
C          2.00765        2.19655       -0.27130
C          0.69591        1.54487       -0.34885
N          0.07061        2.36977       -0.72381
C          0.43016        0.16183        0.01392
C         -0.92139       -0.37901        0.06743
H         -4.69049       -0.01482        0.33717
H         -4.92467       -1.61767        0.25073
H          1.79062       -3.12181        0.06909
H          4.60829       -0.83117       -0.25467
H          3.76857       -1.91906       -1.12737
H          4.04599        0.21781        1.67658
H          4.05163        2.27471        0.34346
H          2.14187        3.23042       -0.60149
H         -0.23975        2.34824       -1.69441
H          0.23269        3.35379       -0.50527
