30
Coordinates from ORCA-job ./opt_b97-3c_parallel
N         -5.15990       -0.61525       -0.16394
C         -4.05842       -0.31680       -0.08746
C         -2.64970        0.06449       -0.01037
C         -2.42090        1.45002        0.08031
N         -3.48714        2.31630        0.15868
C         -1.20145        2.10502        0.06872
C          0.07747        1.59024        0.00966
C          0.52530        0.26753        0.02893
C         -0.27033       -0.91385        0.06222
C          0.42600       -2.15363        0.17693
C          1.81128       -2.25406        0.20439
C          2.52032       -1.08271        0.10255
C          3.90552       -0.83585        0.07160
C          3.90670        0.60183       -0.05081
N          5.07736        1.28974       -0.17154
N          2.89103        1.08858       -0.06212
C          1.93039        0.13346        0.01922
C         -1.69119       -0.98401       -0.02696
N         -2.22831       -2.24928       -0.16945
H         -3.32950        3.31607        0.09996
H         -4.43148        1.96017        0.05156
H         -1.23924        3.19305        0.10153
H          0.83022        2.37359       -0.01192
H         -0.08751       -3.10594        0.26819
H          2.31034       -3.21529        0.29298
H          4.75147       -1.51512        0.09074
H          5.05017        2.27068       -0.42649
H          5.94188        0.78379       -0.32639
H         -3.20856       -2.32809       -0.41968
H         -1.61566       -2.99999       -0.46510
