27
Coordinates from ORCA-job ./opt_b97-3c_parallel
N         -4.93321        1.83130       -0.00595
C         -3.79315        1.74179       -0.05029
C         -3.07365        0.89822       -0.07229
C         -1.79148        1.37625       -0.00870
N         -0.83350        0.81792       -0.02508
C         -0.27933       -0.14443        0.01259
C         -0.95064       -1.45179        0.01957
N         -0.22088       -2.58493        0.07227
C          1.11799       -2.54077        0.11462
C          1.87323       -1.41084        0.09116
C          3.14875       -0.92468        0.05852
C          3.28754        0.49179        0.00048
C          4.60137        1.06335       -0.04366
N          5.65352        1.50274       -0.10809
C          1.97790        0.89594       -0.00394
N          1.86966        1.99739       -0.05399
C          1.17641       -0.23015        0.04096
N         -2.34681       -1.59770       -0.04435
C         -3.16663       -0.47404       -0.08795
N         -3.99229       -1.21484       -0.15787
H         -1.29864        2.34238        0.19317
H          1.72318       -3.45954        0.16440
H          4.02966       -1.56064        0.07140
H          2.76649        2.48221       -0.10987
H          1.16215        2.73016       -0.04804
H         -4.46881       -2.09702       -0.35352
H         -4.74180       -0.51888       -0.10630
