30
Coordinates from ORCA-job ./opt_b97-3c_parallel
N          5.29073        0.38372        0.35644
C          4.17802        0.18281        0.19596
C          2.77725       -0.03404       -0.03410
C          2.69640       -1.37075       -0.33582
C          1.35700       -1.17260       -0.20192
C          0.35204       -2.17744       -0.01603
N          0.54908       -2.83527        0.85259
C         -0.99167       -1.85595       -0.40522
C         -1.88001       -2.92199       -0.78249
N         -2.61178       -3.75429       -1.06056
C         -1.38649       -0.47265       -0.19772
N         -2.75507       -0.30813       -0.33974
C         -3.27724        0.92657       -0.13990
N         -3.16820        2.24277        0.17695
C         -1.88541        2.65964        0.45326
N         -2.14196        3.71018        0.68136
C         -0.66185        1.88126        0.38792
C         -0.43094        0.52840        0.07316
C          0.92677        0.17284       -0.02708
C          1.95651        1.07089       -0.05760
N          2.23285        2.14873       -0.81526
H          3.20598       -2.12934        0.25880
H         -0.12536       -3.59210        0.96181
H          1.46492       -3.27787        0.79220
H         -4.20101        0.38077       -0.38922
H         -1.39090        4.29363        1.05011
H         -2.93586        4.33527        0.54085
H          0.17398        2.51691        0.65437
H          3.18497        2.51625       -0.80989
H          1.92891        2.16854       -1.78744
