30
Coordinates from ORCA-job ./opt_b97-3c_parallel
N         -2.67495       -3.62144       -0.37476
C         -1.83895       -2.84821       -0.27392
C         -0.77484       -1.86934       -0.16135
C          0.54460       -2.34068       -0.06943
N          0.85260       -3.67673       -0.09190
C          1.56147       -1.40512        0.07023
C          2.96053       -1.63897        0.22810
N          2.86152       -0.51481        0.26668
C          2.57284        0.57453        0.29431
N          3.66326        1.36466        0.51113
C          1.31669       -0.07401        0.07707
C          0.02145        0.45973       -0.05866
C         -0.17730        1.85647       -0.14598
C          0.82419        2.88876       -0.27319
N          1.60001        3.72061       -0.39015
C         -1.43977        2.51682       -0.35290
N         -2.51000        2.29787       -0.19379
C         -2.87932        1.27863        0.00173
N         -3.99673        1.58185        0.72679
C         -2.40110       -0.06804       -0.16085
C         -1.05243       -0.47637       -0.13030
H          1.81989       -3.95136       -0.22621
H          0.12974       -4.33708       -0.35813
H          3.46310       -2.52038        0.60816
H          4.59365        0.96419        0.53689
H          3.56226        2.37413        0.53684
H         -1.67418        3.57561       -0.30557
H         -4.32006        2.54140        0.78397
H         -4.61744        0.84454        1.04106
H         -3.24589       -0.74939       -0.22387
