26
Coordinates from ORCA-job ./opt_b97-3c_parallel
N          5.34823       -0.59479        0.09073
C          4.21127       -0.47057        0.07261
C          2.78207       -0.29612        0.04682
C          2.14897       -1.59218        0.00487
N          1.06173       -1.79394       -0.01660
C         -0.11990       -1.13797       -0.02165
C         -1.30646       -1.88767       -0.05468
C         -2.55798       -1.26615       -0.05988
N         -3.70688       -2.00570       -0.10211
C         -2.58820        0.12611       -0.02489
C         -3.70489        1.01268       -0.02139
N         -2.80389        1.69858        0.00741
C         -1.80811        2.23887        0.03025
C         -1.45176        0.85833        0.00631
C         -0.18277        0.27439        0.00499
N          0.92736        1.04821        0.02476
C          2.02645        0.93365        0.02250
N          2.60035        2.16405       -0.12096
H          2.59836       -2.57489        0.08856
H         -1.24984       -2.97404       -0.07854
H         -4.59573       -1.54494        0.05764
H         -3.65234       -3.00968        0.03004
H         -4.76119        0.77288       -0.02214
H         -1.15891        3.10365        0.09113
H          2.03266        3.00189       -0.06894
H          3.60966        2.25915       -0.08782
