28
Coordinates from ORCA-job ./opt_b97-3c_parallel
N          1.60772       -3.96285       -0.05088
C          1.12753       -2.92698       -0.03558
C          0.50211       -1.62094       -0.01980
C         -0.90033       -1.52651       -0.02862
N         -1.70387       -2.63710       -0.07788
C         -1.46749       -0.25334       -0.00285
C         -2.84252        0.12727        0.03862
N         -4.05550       -0.47442        0.20917
N         -2.29152        1.11585       -0.01057
C         -1.57925        1.99637       -0.01195
N         -1.33963        3.33958       -0.03649
C         -0.70828        0.86381       -0.00249
C          0.68745        0.81751        0.00414
N          1.41796        1.95660        0.01594
C          2.44582        2.36245        0.02680
C          3.57000        1.46073        0.05003
C          3.60219        0.02015        0.04579
N          2.65409       -0.54688        0.02496
C          1.30160       -0.45594        0.00487
H         -2.65767       -2.51709       -0.40127
H         -1.26329       -3.53556       -0.24756
H         -4.07859       -1.44328        0.51122
H         -4.86454        0.09656        0.42117
H         -2.10103        4.00764       -0.02140
H         -0.38342        3.67950       -0.01755
H          2.44818        3.44457       -0.01925
H          4.56857        1.88940        0.06573
H          4.46086       -0.63861        0.09070
