28
Coordinates from ORCA-job ./opt_b97-3c_parallel
N         -3.95199       -1.05106        0.57075
C         -2.65917       -0.86224        0.17420
C         -1.78843       -1.95292       -0.17333
C         -0.39947       -1.84217       -0.25613
C          0.35425       -0.66528       -0.08427
C         -0.20164        0.63046        0.07346
C          0.64131        1.74247        0.31230
N          0.13965        2.99919        0.51810
C          2.02695        1.58522        0.34869
C          2.52846        0.31295        0.14606
C          3.84759       -0.17652        0.13116
C          3.60090       -1.58185       -0.09414
N          2.51910       -1.89005       -0.18818
C          1.75091       -0.78298       -0.05779
C         -1.63281        0.82919       -0.03794
N         -2.20496        1.73781       -0.88990
N         -2.54845        0.23792        0.15202
H         -4.36457       -1.97534        0.52117
H         -4.57365       -0.25321        0.64105
H         -2.25800       -2.92351       -0.31394
H          0.13363       -2.77185       -0.43841
H          0.75860        3.72145        0.86882
H         -0.85602        3.09785        0.68809
H          2.69239        2.42725        0.52535
H          4.79916        0.33110        0.24926
H          4.30633       -2.39888       -0.18646
H         -1.64075        2.49922       -1.25041
H         -3.21264        1.84832       -0.89666
