27
Coordinates from ORCA-job ./opt_b97-3c_parallel
N         -1.74612        3.77791       -0.01371
C         -1.47766        2.66657       -0.01538
C         -1.15016        1.25379       -0.00962
C         -2.20886        0.32742       -0.01244
N         -3.52539        0.71349       -0.02930
C         -1.89288       -1.02649       -0.00209
C         -2.76747       -2.15356       -0.00141
N         -1.73045       -2.60272        0.00735
C         -0.63792       -2.88937        0.01479
C         -0.61345       -1.45969        0.00667
C          0.47605       -0.58147        0.00516
C          1.76028       -1.14574        0.01009
C          2.99531       -0.40829        0.00596
N          4.21606       -1.02062        0.00002
N          3.32916        0.64182        0.00317
C          2.64026        1.50332        0.00338
C          1.22880        1.77420       -0.00215
C          0.20027        0.81251       -0.00200
H         -4.26039        0.01747        0.02085
H         -3.76525        1.69848        0.01334
H         -3.85088       -2.17441        0.00091
H          0.17943       -3.59876       -0.00496
H          1.91667       -2.22075        0.01449
H          5.06775       -0.47065        0.00182
H          4.28629       -2.03161        0.00511
H          3.46166        2.21107       -0.00138
H          1.06416        2.84864       -0.00739
