28
Coordinates from ORCA-job ./opt_b97-3c_parallel
N          4.92588        1.45501       -0.00395
C          3.85021        1.10269       -0.16660
C          2.75578        0.18797       -0.07081
C          2.62727       -1.24611        0.08283
N          3.72412       -2.05406        0.16853
N          1.62394       -1.75410        0.13502
C          0.74215       -0.73396        0.02842
C          1.37269        0.46849       -0.10056
N          0.78133        1.66576       -0.25994
C         -0.57054        1.64109       -0.25841
N         -1.15245        2.86567       -0.42670
C         -1.33148        0.45904       -0.10473
C         -2.77748        0.52500       -0.04463
N         -3.46365        1.34498        0.81252
N         -3.62847       -0.14715       -0.25582
C         -3.62715       -1.25009       -0.33625
C         -2.66092       -2.27002       -0.03037
C         -1.29117       -2.03377        0.10162
C         -0.65738       -0.78025        0.01299
H          3.61070       -3.03713        0.38929
H          4.64961       -1.64582        0.24699
H         -2.14215        2.90336       -0.64607
H         -0.56775        3.64256       -0.71396
H         -2.98853        2.14109        1.22353
H         -4.47721        1.35752        0.78982
H         -4.68944       -1.36111       -0.52012
H         -3.04988       -3.28242        0.04559
H         -0.67190       -2.91459        0.25326
