29
Coordinates from ORCA-job ./opt_b97-3c_parallel
N          4.42866        1.33418       -0.35983
C          3.53335        0.69685       -0.23249
C          3.44890       -0.67183       -0.06905
C          2.09774       -0.82548        0.03020
C          1.35330       -2.04555        0.22343
C         -0.04105       -2.06438        0.21947
N         -0.40509       -3.08427        0.43468
C         -0.73209       -0.81092        0.04226
C         -2.14399       -0.94628       -0.28038
N         -3.07598       -1.50170       -0.47510
N         -3.06623        0.09796       -0.34237
C         -2.64825        1.38467       -0.06812
N         -3.55926        2.00772       -0.09028
N         -1.71166        2.34527        0.24452
C         -0.42556        1.84548        0.32675
C         -0.07395        0.47714        0.03223
C          1.37819        0.39546       -0.06422
N          2.33077        1.30941       -0.23171
H          5.34639        0.88878       -0.41584
H          4.61354        2.33561       -0.43344
H          4.11911       -1.20390        0.60448
H          1.95392       -2.94474        0.38092
H         -0.00618       -3.94758        0.06303
H         -1.02943       -3.37171        1.18886
H         -2.46593       -2.31779       -0.43048
H         -3.97802       -1.84219       -0.81122
H         -3.78134        2.99726        0.01990
H         -4.45118        1.51790       -0.00994
H         -0.21065        2.90524        0.53555
