28
Coordinates from ORCA-job ./opt_b97-3c_parallel
N          4.12548        1.95468        0.32465
C          3.32295        1.14590        0.23053
C          2.31753        0.10454        0.12103
C          2.91346       -1.14288        0.29677
C          2.36262       -2.40060        0.19283
C          1.06582       -2.72711       -0.13293
C         -0.04635       -1.90204       -0.27878
C         -1.15655       -2.66638       -0.81562
N         -2.01485       -3.28656       -1.24725
C         -0.15222       -0.49331       -0.11228
C          0.94270        0.42656       -0.06121
C          0.64897        1.81021       -0.16855
C         -0.62917        2.32193       -0.31522
N         -0.83161        3.66470       -0.45836
C         -1.75100        1.45220       -0.31898
C         -3.15112        1.53480        0.03447
C         -3.62128        0.34146        0.53604
C         -2.58481       -0.55412        0.52592
C         -1.45752        0.06727       -0.01323
H          3.98401       -1.15527        0.50369
H          3.05010       -3.23440        0.31632
H          0.90969       -3.79671       -0.27708
H          1.42587        2.56832       -0.16700
H         -0.05400        4.30022       -0.31922
H         -1.77511        4.03014       -0.39181
H         -3.80970        2.39718       -0.02894
H         -4.62708        0.15272        0.90330
H         -2.64943       -1.55598        0.94079
