30
Coordinates from ORCA-job ./opt_b97-3c_parallel
N         -1.52384       -4.23671        0.20422
C         -1.49672       -3.09479        0.14536
C         -1.40509       -1.65232        0.07446
C         -0.05754       -1.34392        0.06727
C          0.56192       -0.10882        0.05862
C          0.00678        1.16194        0.04686
C          0.93287        2.28255        0.13307
N          2.31013        2.25668        0.19408
C          2.78858        1.00872        0.14311
N          4.11028        0.65556        0.15785
C          4.09584       -0.73058        0.08735
N          5.12941       -1.12910        0.07609
C          2.83639       -1.28781        0.00919
C          2.02476       -0.18403        0.06867
C         -1.41043        1.53242       -0.05655
N         -1.54950        2.64108       -0.12345
C         -2.53687        0.68933       -0.09489
C         -3.82905        1.35049       -0.22046
N         -4.82568        1.89912       -0.32063
C         -2.55279       -0.76552        0.00662
N         -3.51911       -1.31797        0.01920
H          0.60799       -2.20173        0.10873
H          0.99547        3.38123        0.16909
H          6.03122       -0.65887        0.17559
H          5.35915       -2.11443       -0.06623
H          2.64227       -2.08237       -0.70857
H         -2.44698        2.94135        0.26044
H         -1.38053        3.24890       -0.92484
H         -3.72284       -2.30252        0.18514
H         -4.41135       -0.82867        0.07825
