29
Coordinates from ORCA-job ./opt_b97-3c_parallel
N          5.06503        1.18801        0.33926
C          4.06129        0.65418        0.21796
C          2.78755       -0.03570        0.08103
C          2.94892       -1.40809        0.15457
C          2.00755       -2.39539       -0.00542
C          0.63097       -2.29164       -0.12766
N          0.07053       -3.53202       -0.31630
C         -0.18621       -1.13512       -0.06519
C         -1.57668       -1.42046        0.03169
C         -2.55577       -0.44493        0.04867
C         -3.95046       -0.78083        0.18473
N         -5.05511       -1.04603        0.30856
C         -2.12703        0.85224       -0.05867
C         -2.86820        2.05484       -0.07190
C         -1.82709        3.04480       -0.15876
N         -0.81302        2.56131       -0.17169
C         -0.81586        1.20404       -0.12782
C          0.24264        0.23751       -0.10656
C          1.59873        0.70132       -0.12099
N          1.84349        2.04150       -0.32457
H          3.96375       -1.77964        0.29438
H          2.42424       -3.40239       -0.01017
H         -0.87869       -3.58026       -0.66888
H          0.68723       -4.30405       -0.54485
H         -1.95114       -2.43550        0.13015
H         -3.94019        2.22209       -0.04436
H         -1.90564        4.12416       -0.21040
H          2.79125        2.39989       -0.28261
H          1.07873        2.68867       -0.47108
