23
Coordinates from ORCA-job ./opt_b97-3c_parallel
N         -5.36221        0.46090       -0.45809
C         -4.26190        0.17919       -0.32957
C         -2.89898       -0.20169       -0.14121
C         -2.52051       -1.57229        0.12611
N         -1.44582       -1.87527        0.28764
C         -0.77354       -0.71028        0.16351
C         -1.60004        0.34295       -0.09910
N         -1.22539        1.62553       -0.27063
C          0.10726        1.84600       -0.16360
C          1.04350        0.83503        0.11010
C          2.43413        1.17921        0.20762
N          3.11726        2.04532        0.22555
N          3.48044        0.49515       -0.27473
C          3.49711       -0.82037       -0.56816
N          2.68710       -1.83856       -0.07928
C          1.48933       -1.57074        0.55950
C          0.59877       -0.47939        0.27417
H         -3.24197       -2.40020        0.19549
H          0.42278        2.87846       -0.30421
H          2.55227        2.42651        0.98089
H          4.08232        2.30957        0.41347
H          4.38696       -1.31208       -0.98898
H          1.26371       -2.63307        0.73547
