31
Coordinates from ORCA-job ./opt_b97-3c_parallel
N         -3.02136       -2.74781       -1.35827
C         -2.03468       -2.36810       -0.92274
C         -0.76653       -1.90072       -0.39538
C          0.21385       -2.87050       -0.57539
C          1.54470       -2.84002       -0.22034
C          2.28141       -1.77917        0.27488
N          3.55680       -2.14631        0.63747
C          1.89499       -0.42463        0.32671
C          2.87406        0.44360        0.96830
N          3.64950        1.10913        1.48293
C          0.63216        0.14778       -0.00012
C         -0.60898       -0.55113        0.01843
C         -1.76042        0.19112        0.41557
C         -2.90484       -0.42862        1.06101
N         -3.80398       -0.90365        1.58377
C         -1.74851        1.58623        0.40170
N         -2.77745        2.37972        0.83679
C         -0.67791        2.29518       -0.20773
C         -0.23280        3.60787       -0.61888
C          1.09904        3.60714       -0.97097
C          1.58221        2.34061       -0.77426
C          0.55989        1.54535       -0.25675
H         -0.11066       -3.83377       -0.96967
H          2.06440       -3.79103       -0.32918
H          3.77672       -3.13110        0.73786
H          4.14327       -1.47281        1.12019
H         -2.77849        3.35963        0.57744
H         -3.66587        1.94330        1.06148
H         -0.81754        4.52119       -0.69740
H          1.66103        4.45535       -1.35391
H          2.59022        2.02916       -1.03629
