28
Coordinates from ORCA-job ./opt_b97-3c_parallel
N         -4.07152       -1.23184       -0.65517
C         -3.03849       -0.47230       -0.18601
C         -3.17106        0.93585        0.07903
C         -2.08933        1.81249        0.18446
C         -0.73195        1.46065        0.10861
C          0.19682        2.51725        0.11258
C          1.57070        2.28467        0.00685
C          2.02050        0.97578       -0.10693
N          3.29474        0.54222       -0.22250
C          3.23095       -0.58173       -0.28482
N          4.35540       -1.34080       -0.41768
C          1.92444       -1.19514       -0.22478
C          1.11988       -0.04470       -0.09908
C         -0.25839        0.13228        0.02445
C         -1.13825       -1.01181        0.09041
N         -0.90274       -2.09722        0.89057
N         -2.20825       -1.19987       -0.11670
H         -3.96844       -2.23864       -0.71314
H         -5.00463       -0.84023       -0.71028
H         -4.18479        1.32261        0.15198
H         -2.33544        2.86456        0.30874
H         -0.15026        3.54537        0.18670
H          2.27414        3.11393        0.00630
H          5.24752       -0.88749       -0.58074
H          4.27811       -2.33265       -0.61129
H          1.66780       -2.24788       -0.28090
H         -1.56310       -2.86636        0.90574
H          0.01543       -2.24007        1.29488
