26
Coordinates from ORCA-job ./opt_b97-3c_parallel
N         -4.80107       -1.83644       -0.00036
C         -3.81393       -1.25901        0.00017
C         -2.58112       -0.51441        0.00079
C         -1.47052       -1.43541        0.00326
N         -0.40282       -1.15086        0.00353
C          0.39798       -0.06107        0.00208
C         -0.12445        1.25268       -0.00062
C          0.75358        2.34868       -0.00156
C          2.13843        2.16797       -0.00010
C          2.62196        0.86430        0.00224
C          3.97010        0.40275        0.00469
N          3.34555       -0.54470        0.00620
C          2.58487       -1.38415        0.00521
N          2.33186       -2.72427        0.00427
C          1.78969       -0.19976        0.00300
N         -1.45742        1.48328       -0.00251
C         -2.40847        0.91925       -0.00253
N         -3.45277        1.79853       -0.00952
H         -1.48011       -2.51901        0.00443
H          0.35167        3.35934       -0.00350
H          2.81542        3.01827       -0.00096
H          4.88611        0.97916        0.00497
H          1.37358       -3.05732        0.01105
H          3.08879       -3.39758        0.01412
H         -4.40835        1.45810       -0.00662
H         -3.28726        2.79810       -0.00701
