28
Coordinates from ORCA-job ./opt_b97-3c_parallel
N          0.20160       -3.68011        0.74079
C         -0.28716       -2.67722        0.49005
C         -0.93755       -1.42071        0.18808
C         -2.33807       -1.58456        0.16648
C         -3.33910       -0.62201        0.04372
C         -3.13289        0.78807       -0.04531
N         -4.10978        1.67088       -0.39867
N         -2.13869        1.21877        0.05638
C         -0.81340        1.06291        0.13997
C         -0.07693        2.24913        0.20169
C          1.30423        2.24710        0.28766
C          1.98683        0.99433        0.32208
C          3.23692        0.39489       -0.06422
N          4.32824        1.21138        0.01602
C          3.45117       -0.93418       -0.56728
C          2.04604       -1.19548       -0.49810
C          1.23420       -0.19259        0.02351
C         -0.18567       -0.20646        0.11143
H         -2.71682       -2.60110        0.26562
H         -4.38209       -0.93027        0.04756
H         -5.07467        1.36745       -0.45954
H         -3.91459        2.66569       -0.39705
H         -0.59635        3.20533        0.19031
H          1.84996        3.18606        0.33603
H          4.24371        2.09250        0.51051
H          5.25169        0.80623       -0.08979
H          4.24215       -1.60677       -0.24957
H          1.67633       -2.09931       -0.96979
