36
Coordinates from ORCA-job ./opt_b97-3c_parallel
N         -2.95047        3.03336       -1.13571
C         -2.57588        2.02420       -0.74857
C         -2.11421        0.72425       -0.27449
C         -3.03449       -0.31679       -0.52085
N         -4.27604       -0.02455       -1.04050
C         -2.90246       -1.66316       -0.21877
C         -1.81825       -2.35377        0.29250
N         -2.10494       -3.66668        0.58637
C         -0.50104       -1.88633        0.41775
C          0.40281       -2.79936        1.10307
N          1.09154       -3.51938        1.66527
C         -0.00672       -0.59339        0.12399
C         -0.75868        0.61439        0.15388
C         -0.03769        1.79529        0.52454
C         -0.67000        2.89143        1.23778
N         -1.15507        3.74998        1.81821
C          1.35539        1.87575        0.38759
N          2.06093        3.01996        0.67268
C          2.01191        0.74968       -0.07020
C          3.38285        0.59448       -0.44603
N          4.39794        1.47055       -0.70041
N          2.95452       -0.44866       -0.51687
C          2.34334       -1.39461       -0.58910
N          2.58275       -2.64989       -1.06727
C          1.38050       -0.44337       -0.11486
H         -4.55924        0.94742       -1.12001
H         -4.99912       -0.73501       -1.02666
H         -3.79574       -2.26679       -0.38554
H         -3.07281       -3.96612        0.63091
H         -1.40174       -4.23555        1.04715
H          3.05099        2.92486        0.87614
H          1.56561        3.78739        1.11327
H          4.18473        2.46263       -0.71556
H          5.19243        1.16077       -1.24742
H          1.92454       -3.38403       -0.82639
H          3.53664       -2.93509       -1.25612
