27
Coordinates from ORCA-job ./opt_b97-3c_parallel
N         -4.02646       -0.01707       -0.14260
C         -2.68082       -0.23091       -0.06763
N         -1.94543       -1.09465       -0.06789
C         -1.06627       -1.81184       -0.08408
N         -0.78795       -3.14732       -0.10010
C         -0.44177       -0.53007       -0.05076
C         -1.40748        0.40812       -0.02740
C         -1.06730        1.75536        0.02320
N         -2.00835        2.74291        0.06709
N          0.23009        2.13626        0.03735
C          1.21983        1.19606        0.00367
C          2.52971        1.70258        0.00760
C          3.75194        1.01906       -0.02901
C          3.95389       -0.35981       -0.06760
C          2.91813       -1.34773       -0.06479
N          1.84275       -1.14952       -0.06204
C          0.91214       -0.18429       -0.03661
H         -4.64133       -0.79598       -0.34971
H         -4.36813        0.91725       -0.33759
H         -1.53293       -3.81946        0.04179
H          0.16905       -3.45587        0.03188
H         -1.70474        3.68122        0.30102
H         -2.96379        2.48431        0.28570
H          2.61849        2.78694        0.03728
H          4.64758        1.63521       -0.02845
H          4.96295       -0.76354       -0.09680
H          3.00206       -2.41622        0.09293
