31
Coordinates from ORCA-job ./opt_b97-3c_parallel
N          2.21167       -4.14706       -0.30483
C          1.87276       -3.05965       -0.20707
C          1.42483       -1.68255       -0.08963
C          0.05022       -1.57374        0.07204
C         -0.79299       -0.46085        0.04433
C         -0.42792        0.90878       -0.04297
C         -1.51109        1.82077       -0.29386
N         -1.37204        3.12288       -0.69340
N         -2.82010        1.49422       -0.30939
C         -3.12784        0.21793       -0.07752
C         -4.49727       -0.24460       -0.05714
C         -4.21263       -1.64869        0.16638
C         -2.85949       -1.93565        0.23233
C         -2.17147       -0.75102        0.07514
C          0.89242        1.40643        0.16584
N          0.99525        2.72879        0.55102
C          2.13479        0.71979        0.10117
C          3.33994        1.53578        0.25547
N          4.28258        2.16899        0.39179
C          2.37435       -0.65276       -0.12399
N          3.68482       -1.05186       -0.31937
H         -0.44258       -2.53785        0.13302
H         -2.18450        3.59373       -1.07557
H         -0.45567        3.43499       -0.99649
H         -5.35695        0.29926        0.32062
H         -4.94509       -2.44416        0.27887
H         -2.45084       -2.92847        0.39644
H          0.15016        3.21955        0.82533
H          1.88182        3.07249        0.90508
H          4.43523       -0.38516       -0.16997
H          3.90975       -2.04129       -0.31109
