31
Coordinates from ORCA-job ./opt_b97-3c_parallel
N          4.78170        2.25284        0.54746
C          3.95700        1.49040        0.33707
C          2.91292        0.53734        0.11169
C          3.18419       -0.79860       -0.06652
N          4.33683       -1.48864       -0.00142
C          1.89443       -1.21833       -0.32311
C          1.52200       -2.44573        0.31171
N          1.18118       -3.41385        0.81375
C          0.83820       -0.23985       -0.33273
C          1.53676        0.89464       -0.01708
N          1.01973        2.12454        0.20344
C         -0.31779        2.28398        0.09201
C         -1.21675        1.25702       -0.22598
C         -2.59682        1.68376       -0.35377
N         -3.31243        2.52309       -0.33275
N         -3.71711        0.97192        0.05775
C         -3.57250       -0.39972        0.14428
N         -4.48165       -0.84418        0.58127
N         -2.67268       -1.22498       -0.28935
C         -1.39598       -1.22466       -0.50773
N         -1.57387       -2.30941       -0.60409
C         -0.58821       -0.03595       -0.43394
H          4.32632       -2.47941        0.23430
H          5.15340       -1.07228        0.44435
H         -0.66632        3.30247        0.26272
H         -2.63388        3.06663       -0.86457
H         -4.19654        3.02648       -0.40138
H         -5.11625       -0.32752        1.18887
H         -4.46412       -1.80146        0.93129
H         -0.62135       -2.22616       -0.95658
H         -1.90366       -3.22645       -0.90490
