29
Coordinates from ORCA-job ./opt_b97-3c_parallel
N          4.24570       -1.77131        0.36467
C          3.21604       -1.28498        0.26788
C          1.92078       -0.65539        0.15149
C          0.72178       -1.37649        0.17474
N          0.76071       -2.74210        0.31981
C         -0.51581       -0.70373        0.05014
C         -1.71986       -1.50331       -0.03962
N         -1.94653       -2.39945       -1.05121
N         -2.75515       -1.45739        0.34072
C         -3.27331       -0.52355        0.62555
C         -3.07185        0.83668        0.20429
C         -1.82567        1.41633       -0.06143
N         -1.89145        2.76096       -0.30958
C         -0.58584        0.71513       -0.03658
C          0.65055        1.39787       -0.08792
N          0.92564        2.72172       -0.18290
C          2.03643        2.90561       -0.18083
C          2.82992        1.70763       -0.06245
C          1.82651        0.71677       -0.00252
H          1.63305       -3.17960        0.59694
H         -0.10570       -3.23230        0.51688
H         -2.79167       -2.95924       -1.04310
H         -1.16252       -2.73360       -1.60075
H         -4.18289       -0.99017        0.98507
H         -3.98591        1.42655        0.18524
H         -1.02754        3.29316       -0.31661
H         -2.75094        3.25468       -0.09762
H          2.35597        3.93720       -0.26775
H          3.91172        1.62353       -0.04212
