30
Coordinates from ORCA-job ./opt_b97-3c_parallel
N          3.99515        1.66935        0.59909
C          2.77945        1.24270        0.14809
C          1.72115        2.15222       -0.20014
C          0.37581        1.78869       -0.27118
C         -0.14780        0.49350       -0.09130
C          0.63807       -0.67807        0.06323
C          0.01457       -1.92560        0.30759
N          0.73936       -3.06875        0.50960
C         -1.37571       -2.02527        0.35351
C         -2.10392       -0.86669        0.15430
C         -3.49088       -0.62861        0.14866
C         -3.49994        0.79735       -0.07709
N         -4.67377        1.48611       -0.15590
N         -2.49867        1.30439       -0.17971
C         -1.54200        0.35356       -0.05383
C          2.08040       -0.61002       -0.05841
N          2.80560       -1.40382       -0.90838
N          2.87366        0.14123        0.11499
H          4.21803        2.65816        0.59262
H          4.75735        1.00684        0.68672
H          2.00377        3.19180       -0.34807
H         -0.31982        2.60365       -0.45235
H          1.73683       -2.98403        0.67471
H          0.26485       -3.89416        0.85817
H         -1.87440       -2.97462        0.53453
H         -4.33255       -1.30227        0.27487
H         -5.55551        0.98725       -0.18887
H         -4.66395        2.46471       -0.42119
H          2.39187       -2.26272       -1.25352
H          3.81628       -1.32523       -0.92199
