29
Coordinates from ORCA-job ./opt_b97-3c_parallel
N          5.11569        1.96436        0.08431
C          4.07782        1.48475        0.07650
C          2.75490        0.89285        0.05950
C          1.72242        1.81776        0.09970
C          0.35278        1.61399        0.07259
C         -0.39522        0.43286        0.02613
C          0.09249       -0.90054        0.01787
C          1.45543       -1.26208       -0.00022
C          2.62733       -0.50127        0.00223
N          3.77702       -1.25154       -0.05201
C         -0.86159       -1.96451        0.01192
C         -0.51211       -3.36898        0.01855
N         -0.25010       -4.48159        0.02304
C         -2.23544       -1.71824       -0.00030
C         -2.66602       -0.40724       -0.01828
C         -4.00139        0.08905       -0.05781
N         -3.35242        1.01515       -0.05872
C         -2.55947        1.81905       -0.07340
N         -2.87051        3.14228       -0.18032
C         -1.78921        0.61544       -0.00837
H          2.01592        2.86576        0.14858
H         -0.19948        2.54817        0.10304
H          1.67502       -2.32442       -0.03033
H          4.65728       -0.77831       -0.22908
H          3.70872       -2.23382       -0.29421
H         -2.95676       -2.53322       -0.00622
H         -4.93228       -0.45688        0.03743
H         -3.83039        3.41201       -0.36170
H         -2.14131        3.80321       -0.42406
