29
Coordinates from ORCA-job ./opt_b97-3c_parallel
N          0.48760       -4.34681        0.26888
C          0.51045       -3.20948        0.15740
C          0.51700       -1.76819        0.01548
C          1.74362       -1.09629       -0.12766
N          2.94577       -1.75440       -0.14952
C          1.71626        0.32989       -0.28199
C          2.72592        1.27501       -0.02037
N          3.77748        1.52325        0.19533
N          2.14494        2.53708        0.08787
C          0.78681        2.41780       -0.01813
N          0.54388        3.48745        0.14783
C          0.53289        1.06913       -0.20276
C         -0.72661        0.35863       -0.12531
N         -1.89779        1.03141       -0.17330
C         -3.24854        0.70925       -0.13030
N         -3.97139        1.54106       -0.20070
N         -3.94696       -0.48143       -0.00863
C         -3.12947       -1.59493        0.09684
N         -1.83761       -1.70012        0.10342
C         -0.70157       -1.04961        0.00208
H          2.94705       -2.77146       -0.17401
H          3.77670       -1.28109       -0.48907
H          4.14795        0.60657        0.44683
H          4.58022        2.15215        0.16646
H          1.25154        4.22540        0.19580
H         -0.34360        3.98853        0.18900
H         -4.91128        1.20628        0.01729
H         -4.10523        2.49000       -0.54921
H         -3.61886       -2.57720        0.19959
