31
Coordinates from ORCA-job ./opt_b97-3c_parallel
N         -3.42577       -3.05667       -0.60435
C         -2.87742       -2.06981       -0.42481
C         -2.16758       -0.82457       -0.20152
C         -0.78110       -0.95055       -0.18678
C          0.25770       -0.01348       -0.07021
C          0.12128        1.40643       -0.02017
C         -1.10254        2.09263        0.22868
N         -1.10246        3.41747        0.58904
C         -2.40871        1.60330        0.24863
C         -2.91257        0.33449        0.01200
N         -4.28427        0.25593        0.02531
C          1.32648        2.15949       -0.20947
N          1.39483        3.50280       -0.45989
N          2.56181        1.63525       -0.29460
C          2.66984        0.31243       -0.18448
C          3.97250       -0.31087       -0.20870
C          3.51508       -1.66775       -0.01506
C          2.13757       -1.79533        0.05399
C          1.52776       -3.06605        0.36115
N          1.05860       -4.08082        0.59903
C          1.58257       -0.52498       -0.07299
H         -0.47915       -1.96625       -0.37672
H         -1.95011        3.80942        0.98390
H         -0.22052        3.82980        0.87600
H         -3.17828        2.34895        0.45519
H         -4.84386        1.08739        0.17929
H         -4.74475       -0.63380       -0.13737
H          2.26985        3.87259       -0.81375
H          0.54040        3.97388       -0.73745
H          4.89261        0.10799        0.18537
H          4.15912       -2.53548        0.10468
