31
Coordinates from ORCA-job ./opt_b97-3c_parallel
N          2.10753       -2.91051        1.44901
C          1.88281       -1.92971        0.90639
C          1.61018       -0.66094        0.23929
C          2.75839        0.14109        0.05827
N          4.00588       -0.42098        0.21152
C          2.82619        1.47920       -0.30521
C          1.80850        2.41471       -0.33922
N          2.18332        3.70334       -0.60512
C          0.46366        2.20456       -0.07849
C         -0.25494        1.00877        0.04151
C          0.24533       -0.32284        0.00044
C         -0.71497       -1.36802       -0.21804
C         -0.34393       -2.65626       -0.78189
N         -0.06503       -3.66291       -1.24732
C         -2.09726       -1.13662       -0.10830
N         -3.03536       -2.12319       -0.28800
C         -2.51853        0.15289        0.16007
C         -3.85257        0.64791        0.27730
N         -3.20094        1.56860        0.31420
C         -2.41602        2.37834        0.31403
C         -1.64422        1.17889        0.18148
H          4.07339       -1.34696        0.62170
H          4.80971        0.19168        0.29111
H          3.82529        1.87366       -0.49070
H          1.46371        4.38018       -0.83416
H          3.11864        3.87184       -0.95933
H         -0.11440        3.12441       -0.06701
H         -2.73361       -3.01302       -0.67273
H         -4.00492       -1.85623       -0.41187
H         -4.77161        0.09324        0.42404
H         -2.19044        3.28082        0.87002
