25
Coordinates from ORCA-job ./opt_b97-3c_parallel
N         -4.85355       -1.04661        0.10959
C         -3.71451       -1.03637        0.01759
C         -2.53236       -0.23062        0.01466
C         -2.07572        1.14039        0.03935
N         -3.09776        2.04621       -0.04441
C         -0.81724        1.84178        0.11721
C         -0.24325        0.52828        0.06570
C         -1.13034       -0.53443        0.01635
N         -0.73221       -1.82421       -0.03309
C          0.59698       -2.06317       -0.03604
C          1.56985       -1.05740        0.00449
C          2.91266       -1.46525       -0.01527
C          4.02475       -0.62122       -0.00533
C          3.94475        0.81448        0.01373
N          3.14762        1.57546        0.06376
C          2.06197        1.38407        0.11110
C          1.13435        0.28088        0.06005
H         -4.05152        1.70963        0.04442
H         -2.91278        3.02225        0.15780
H         -0.51102        2.67445       -0.50875
H          0.87428       -3.11495       -0.07887
H          3.11701       -2.53328       -0.04641
H          5.02743       -1.04094       -0.02363
H          4.74480        1.53254       -0.12636
H          1.88708        2.40744        0.42385
