31
Coordinates from ORCA-job ./opt_b97-3c_parallel
N          3.11417       -3.62143        0.03873
C          2.68679       -2.56220        0.05099
C          2.17324       -1.22733        0.03331
C          3.29408       -0.40920        0.01963
N          3.51537        0.91979       -0.01828
C          2.38074        1.69456       -0.02801
N          2.68162        2.75408       -0.07746
N          1.10903        1.50807        0.01082
C          0.32424        0.48562        0.01529
C          0.76838       -0.83420        0.02155
C         -0.19349       -1.92523        0.02605
C         -1.56453       -1.67776        0.01503
N         -2.16780       -2.60194        0.04010
C         -1.99221       -0.30594        0.00005
C         -3.28520        0.13287       -0.04343
N         -4.31289       -0.26860       -0.07865
C         -3.14050        1.49479       -0.03851
C         -1.85625        1.86464       -0.00234
N         -1.46727        3.15057        0.02789
C         -1.10375        0.72343        0.01161
H          4.38156       -0.58535        0.02394
H          2.10667        3.57114       -0.28102
H          3.64840        3.07460       -0.09546
H          0.15649       -2.95816        0.03854
H         -2.00453       -3.60293       -0.05904
H         -3.04760       -2.50025        0.54494
H         -4.23010       -1.20001       -0.48314
H         -5.26441        0.04590       -0.26327
H         -3.97225        2.20004       -0.05001
H         -0.57790        3.41015        0.44542
H         -2.14256        3.87396        0.27599
