34
Coordinates from ORCA-job ./opt_b97-3c_parallel
N         -5.65716       -1.20757        0.42983
C         -4.61223       -0.78930        0.22993
C         -3.22664       -0.44067        0.12579
C         -2.86488        0.93271       -0.10436
N         -3.68827        2.00802       -0.30306
C         -1.42851        0.93184       -0.19038
C         -0.44199        1.97092       -0.16433
N         -0.86032        3.27151       -0.18223
C          0.90820        1.70484       -0.01585
C          1.45192        0.40287       -0.01367
C          2.86783        0.27792        0.12942
C          3.63691        1.48899        0.39273
N          4.25222        2.43221        0.59235
C          3.65989       -0.89400        0.07899
N          5.01461       -0.81563        0.31062
C          3.26391       -2.18874       -0.22505
C          2.00216       -2.66290       -0.50874
C          0.80032       -1.98435       -0.47337
C          0.51557       -0.64556       -0.19119
C         -0.92699       -0.41043       -0.10680
C         -2.05189       -1.27063        0.16737
N         -2.23490       -2.55882        0.59263
H         -4.68329        1.84139       -0.40972
H         -3.29802        2.84189       -0.72764
H         -0.18946        3.99672        0.04811
H         -1.83899        3.46022        0.00398
H          1.52981        2.59224        0.05382
H          5.45244        0.09795        0.37244
H          5.59973       -1.61735        0.10417
H          4.04601       -2.94613       -0.25754
H          1.94004       -3.72204       -0.74882
H         -0.04106       -2.62838       -0.70681
H         -1.42849       -3.10401        0.87660
H         -3.15220       -2.84262        0.92101
