30
Coordinates from ORCA-job ./opt_b97-3c_parallel
N         -2.40972       -2.62317        1.04601
C         -2.14845       -1.79832        0.29575
C         -1.65338       -0.81965        0.10534
C         -2.72151        0.06329        0.17868
N         -3.78452        0.39091        0.31758
N         -2.96500        1.42099       -0.00712
C         -1.83360        2.19423       -0.23826
N         -2.00364        3.25570       -0.47830
N         -0.59183        1.84986       -0.14897
C          0.23574        0.84197       -0.12090
C         -0.17915       -0.50642       -0.10503
C          0.81933       -1.50049       -0.29871
C          0.49739       -2.89802       -0.50123
N          0.24257       -3.99624       -0.68600
C          2.16963       -1.12926       -0.41305
N          3.17332       -2.01967       -0.69010
C          2.53618        0.25021       -0.28041
C          3.73111        0.71459        0.32754
C          3.51676        1.99154        0.73316
C          2.25128        2.30386        0.45988
C          1.61945        1.25152       -0.15296
H         -4.73642        0.74774        0.41335
H         -3.78153       -0.49968        0.81545
H         -2.97526        3.41026       -0.74491
H         -1.45857        3.97053       -0.95850
H          4.13970       -1.72140       -0.60892
H          2.97480       -3.01560       -0.66612
H          4.57481        0.09137        0.60822
H          4.24764        2.63866        1.21331
H          1.79447        3.26561        0.68180
