23
Coordinates from ORCA-job ./opt_b97-3c_parallel
N          5.01173       -1.80334        0.26103
C          4.10419       -1.11146        0.20062
C          2.98371       -0.22914        0.07956
C          3.21190        1.18439        0.08146
N          2.25590        2.17875       -0.06831
C          0.92969        1.94763       -0.10520
C          0.05373        0.88382       -0.01753
C          0.52372       -0.48773        0.01488
C          1.81307       -0.86452       -0.19741
C         -0.52997       -1.46336        0.12155
C         -1.95057       -1.27983        0.12802
C         -2.87160       -2.37248        0.18670
N         -3.36184       -3.39378        0.03398
C         -2.25847        0.11621        0.08223
N         -3.48198        0.62123        0.08643
C         -3.17209        1.97049        0.02654
N         -1.91066        2.31095       -0.01199
C         -1.30702        1.16604        0.01980
H          4.20103        1.65568        0.18441
H          0.77591        3.03637       -0.16235
H          1.91386       -1.85957       -0.62814
H         -0.27421       -2.51379       -0.00381
H         -4.00665        2.68774        0.01366
