27
Coordinates from ORCA-job ./opt_b97-3c_parallel
N          2.91478       -1.73788       -0.46512
C          2.14472       -0.65309       -0.13729
C          2.89373        0.52018        0.00395
C          2.36856        1.79260        0.41322
N          1.41000        2.30519        0.22519
C          0.47199        1.76854        0.00496
N         -0.13485        2.88417       -0.50870
C         -0.09082        0.43219        0.02465
C          0.72433       -0.73625       -0.01388
C          0.04197       -1.99187        0.05482
N          0.65931       -3.20440        0.18522
N         -1.30235       -2.12961        0.10002
C         -1.99374       -0.98562        0.08601
C         -3.38860       -0.80755        0.12087
C         -3.46278        0.63538        0.11168
N         -2.47737        1.18642        0.09419
C         -1.48224        0.26674        0.06894
H          3.87135       -1.57427       -0.75860
H          2.44384       -2.55060       -0.84945
H          3.97382        0.52347       -0.12838
H          2.91090        2.66759        0.75154
H         -1.13685        2.85439       -0.66500
H          0.27434        3.79409       -0.32705
H          1.62916       -3.20514        0.48246
H          0.08724       -3.99137        0.47017
H         -4.20016       -1.52682        0.12437
H         -4.33423        1.27886        0.10990
