29
Coordinates from ORCA-job ./opt_b97-3c_parallel
N          1.90822       -2.86534       -0.85200
C          1.75154       -1.76337       -0.58958
C          1.56856       -0.36399       -0.27077
C          2.79859        0.39569       -0.20083
N          4.02319       -0.12974        0.12305
N          3.13287        1.44171       -0.10318
C          2.46332        2.29594        0.10007
C          1.05202        2.56162        0.08057
C          0.04089        1.59837       -0.00188
N         -1.21968        2.09668        0.02208
C         -2.28939        1.28196       -0.05091
N         -3.50325        1.90693       -0.03717
C         -2.16713       -0.10492       -0.11833
C         -3.24800       -0.97277       -0.11929
C         -2.94874       -2.37088       -0.08479
C         -1.62095       -1.86610        0.16417
N         -0.94989       -2.81167        0.88953
C         -0.85474       -0.68266       -0.14869
C          0.28848        0.20793       -0.13229
H          4.84729        0.46071        0.09359
H          4.16003       -1.13388        0.08290
H          3.23768        2.83104        0.63858
H          0.81169        3.61914        0.16894
H         -4.32274        1.37400       -0.30440
H         -3.52353        2.91032       -0.18091
H         -4.27230       -0.61133       -0.07373
H         -3.46546       -3.10654        0.52515
H         -1.35676       -3.73730        0.96504
H          0.06037       -2.74068        0.94964
