28
Coordinates from ORCA-job ./opt_b97-3c_parallel
N          3.95251        2.03682        0.36969
C          3.24768        1.15884        0.17818
C          1.89009        0.67774        0.08756
C          0.71001        1.42072        0.04854
N          0.81924        2.52736        0.07755
C         -0.59911        0.77787       -0.04382
C         -1.69984        1.61563       -0.25874
N         -2.10286        2.63679       -0.41902
N         -3.02121        1.43573       -0.45424
C         -3.48868        0.16702       -0.19471
C         -3.06579       -0.97562        0.39311
C         -1.85709       -1.44368       -0.03100
N         -2.20941       -2.49130       -0.09492
C         -0.62847       -0.67804       -0.05000
C          0.55750       -1.38061       -0.07309
N          0.79743       -2.68580       -0.11089
C          2.18142       -2.72212       -0.07649
N          2.82606       -1.58931       -0.01120
C          1.82777       -0.76467       -0.00511
H          1.69619        2.79493       -0.37376
H          0.92847        2.77698        1.06119
H         -1.13094        2.94421       -0.47536
H         -2.66411        3.43644       -0.71260
H         -4.56081       -0.04489       -0.32705
H         -3.41589       -1.18397        1.40927
H         -2.88597       -3.25391       -0.06349
H         -1.29806       -2.93396       -0.21960
H          2.75991       -3.65882       -0.09585
