28
Coordinates from ORCA-job ./opt_b97-3c_parallel
N         -3.61975        2.53001       -0.40904
C         -2.89866        1.64819       -0.31228
C         -1.97847        0.53824       -0.17359
C         -2.68066       -0.72314       -0.08357
N         -3.82658       -0.92668        0.64200
N         -2.49622       -1.79174       -0.28355
C         -1.47532       -2.19739       -0.39351
C         -0.11859       -1.77615       -0.16604
C          0.68512       -2.97536       -0.14512
N          1.30778       -3.93393       -0.13297
C          0.32327       -0.43681       -0.08182
C         -0.57123        0.67456       -0.13247
C         -0.03756        1.98349       -0.12996
C          1.33172        2.22290       -0.05241
N          1.81778        3.50017       -0.05862
C          2.17672        1.12642        0.03745
C          3.60083        1.11133        0.12689
N          3.29804        0.02421        0.12304
C          2.83706       -1.00472        0.10973
C          1.69877       -0.14166        0.02627
H         -4.37281       -0.12525        0.93876
H         -4.30191       -1.82061        0.58227
H         -1.84470       -3.15372       -0.74927
H         -0.68621        2.85422       -0.17832
H          1.19234        4.25665       -0.31351
H          2.81219        3.63865       -0.20035
H          4.26810        1.89957        0.45398
H          3.13357       -1.66177        0.91913
