27
Coordinates from ORCA-job ./opt_b97-3c_parallel
N          5.35439        0.93952       -0.02678
C          4.22667        0.75325       -0.02065
C          2.79974        0.53531       -0.01313
C          1.96149        1.65171       -0.02013
C          0.56043        1.67353       -0.01950
C         -0.35343        0.60179       -0.00684
C         -0.00263       -0.76714        0.00747
C         -1.00496       -1.75008        0.02824
C         -2.35828       -1.41132        0.03626
N         -3.32418       -2.37849        0.06765
C         -2.68226       -0.05881        0.01583
C         -3.96965        0.55599        0.01565
N         -3.24465        1.42310       -0.00579
C         -2.39355        2.16566       -0.02514
C         -1.72613        0.90091       -0.00576
N          1.27014       -1.18744        0.00404
C          2.29593       -0.81046       -0.00554
N          3.06367       -1.93880        0.06886
H          2.44762        2.62517       -0.02706
H          0.14361        2.67550       -0.02741
H         -0.72038       -2.80037        0.04130
H         -4.29113       -2.11393       -0.08298
H         -3.05871       -3.34625       -0.07788
H         -4.94607        0.08730        0.00826
H         -1.99139        3.16781        0.05613
H          4.07380       -1.87147        0.00616
H          2.63283       -2.85332       -0.00332
