32
Coordinates from ORCA-job ./opt_b97-3c_parallel
N          4.79657       -2.23442        0.01267
C          4.10909       -1.32109        0.01479
C          3.22686       -0.16936        0.00732
C          1.86871       -0.49878        0.01084
C          0.70255        0.28729        0.00688
C          0.68179        1.69950       -0.00263
C          1.77404        2.57211       -0.01022
C          3.13669        2.31826       -0.01066
C          3.80818        1.10466       -0.00291
N          5.17685        1.21551       -0.00588
C         -0.55002        2.36649       -0.00491
C         -1.76059        1.68923        0.00186
C         -2.97394        2.47007       -0.00067
N         -3.92473        3.10381       -0.00251
C         -1.75324        0.29382        0.01111
C         -2.94943       -0.51033        0.01872
C         -4.37265       -0.33864        0.02079
N         -5.51529       -0.37443        0.02448
C         -2.17303       -1.73295        0.02600
N         -2.97845       -2.84987        0.03538
C         -0.72451       -1.82726        0.02364
C         -0.19081       -3.15955        0.03131
N          0.50646       -4.06566        0.03814
C         -0.54795       -0.39252        0.01357
H          1.72254       -1.56631        0.01800
H          1.54631        3.63667       -0.01695
H          3.76088        3.21066       -0.01794
H          5.61916        2.12758       -0.01466
H          5.75342        0.37993       -0.00294
H         -0.57833        3.45595       -0.01199
H         -3.98947       -2.75834        0.03777
H         -2.56354       -3.77654        0.04198
