26
Coordinates from ORCA-job ./opt_b97-3c_parallel
N         -3.37421        3.34388       -0.50158
C         -2.55798        2.55200       -0.38128
C         -1.53471        1.55262       -0.21399
C         -0.20963        1.95728       -0.01405
C          0.82854        1.03182        0.16133
C          2.16363        1.51973        0.37541
N          2.74633        2.44984        0.48248
N          3.29474        1.02698       -0.14871
C          3.47969       -0.24086       -0.57154
N          2.80470       -1.39250       -0.18187
C          1.56523       -1.31992        0.42615
C          0.56143       -0.33476        0.13764
C         -0.73456       -0.72590       -0.17774
C         -1.46070       -1.94848        0.05621
C         -1.05355       -3.31895        0.03859
N         -0.70354       -4.40624        0.04641
C         -2.80899       -1.74968        0.10477
C         -3.05364       -0.46758       -0.10900
C         -1.85999        0.14905       -0.31370
H          0.01806        3.02117        0.01850
H          2.09821        2.77998        1.19363
H          3.66084        2.83465        0.71079
H          4.42203       -0.59630       -1.01448
H          1.68590       -2.41301        0.46055
H         -3.56272       -2.51336        0.28629
H         -4.03481        0.00068       -0.14080
