23
Coordinates from ORCA-job ./opt_b97-3c_parallel
N         -3.89614       -1.12301        0.07748
C         -2.92690       -0.59566        0.05772
N         -2.86758        0.79102        0.04962
C         -1.55546        0.97121        0.03237
C         -0.92064        2.25701        0.01952
C          0.51633        2.20537        0.00674
C          1.25178        1.02019       -0.00814
C          2.69103        1.17569       -0.04642
C          3.61902        0.18793        0.06115
C          3.30212       -1.12697        0.02487
N          2.31023       -2.07031       -0.02065
C          1.02543       -1.56721       -0.04388
C          0.54748       -0.19832       -0.00043
C         -0.89834       -0.28427        0.02687
N         -1.78436       -1.23032        0.04518
H         -4.05568       -2.12948        0.10878
H         -4.81584       -0.68486        0.11376
H         -1.49369        3.17989        0.02106
H          1.00912        3.17608       -0.00175
H          3.09134        2.18359       -0.10866
H          4.67107        0.46551        0.06864
H          4.19948       -1.76488        0.02556
H          0.87671       -2.65798       -0.05429
