30
Coordinates from ORCA-job ./opt_b97-3c_parallel
N         -3.94561        2.45255        1.02602
C         -3.22966        1.60516        0.74949
C         -2.31340        0.54435        0.38626
C         -2.96717       -0.62181       -0.16365
N         -3.95559       -0.57592       -1.10975
N         -2.76709       -1.70668       -0.11739
C         -1.81333       -2.13815        0.23614
C         -0.43504       -1.73869        0.10695
C          0.49609       -2.75969       -0.09398
N          1.82064       -2.54651       -0.20611
C          2.23332       -1.26709       -0.13800
C          3.62964       -0.99347       -0.28988
C          3.31382        0.40618       -0.15022
N          4.53091        1.03140       -0.20331
C          2.04565        1.09111       -0.04416
C          1.84772        2.04707       -1.09395
N          1.83593        3.18996       -1.09513
C          1.38558       -0.18542        0.06017
C         -0.00628       -0.39578        0.22766
C         -0.91494        0.65733        0.52827
N         -0.44922        1.84066        1.04667
H         -4.44212       -1.42930       -1.36023
H         -4.43313        0.30259       -1.28116
H         -2.24229       -3.13033        0.14847
H          0.18424       -3.80096       -0.15828
H          4.41938       -1.53022        0.22830
H          4.53985        2.03433       -0.35965
H          5.33153        0.50135       -0.52939
H         -1.11981        2.50742        1.41483
H          0.50010        1.88076        1.40034
