27
Coordinates from ORCA-job ./opt_b97-3c_parallel
N          4.95884        1.98841        0.00568
C          4.14245        1.18877        0.00218
C          3.10282        0.18848        0.00183
C          3.53774       -1.13165        0.00044
C          2.77397       -2.28702        0.00005
C          1.39287       -2.41828        0.00120
C          0.39637       -1.43757        0.00119
C         -0.91149       -1.95996        0.00194
C         -2.04382       -1.14658        0.00056
C         -3.35388       -1.74996        0.00367
N         -4.37977       -2.25515        0.00664
C         -1.86409        0.23173       -0.00206
N         -2.80490        1.20405       -0.00248
C         -2.26365        2.18888       -0.00048
N         -2.92738        3.38118        0.00702
C         -0.81941        2.13811       -0.00057
C         -0.59703        0.73784       -0.00130
C          0.57633       -0.03544        0.00061
C          1.79086        0.66317        0.00133
H          4.61514       -1.29241       -0.00040
H          3.33441       -3.21940       -0.00135
H          1.05764       -3.45373        0.00078
H         -1.06274       -3.03815        0.00345
H         -2.42307        4.24472        0.17369
H         -3.93504        3.39033        0.12260
H         -0.12866        2.97329       -0.00122
H          1.71602        1.74732        0.00114
