24
Coordinates from ORCA-job ./opt_b97-3c_parallel
N         -4.09566        0.82974        0.18212
C         -2.82894        0.43891       -0.03708
C         -2.78772       -0.92254       -0.15811
C         -1.58449       -1.71508       -0.12932
C         -0.31430       -1.16581       -0.06112
C          0.77880       -2.08517        0.09678
N          2.12337       -1.76087        0.19135
C          2.34109       -0.43586        0.11948
N          3.54674        0.19582        0.15828
C          3.17796        1.52444        0.01187
C          1.84264        1.84147       -0.11175
C          1.35110        0.56692       -0.05039
C          0.00763        0.24238       -0.16023
C         -0.87685        1.25664       -0.39864
C         -1.97794        1.41865        0.38250
H         -4.37307        1.79918        0.03848
H         -4.87608        0.23557       -0.09226
H         -3.70729       -1.50067       -0.22230
H         -1.72603       -2.79226       -0.12988
H          0.82686       -3.18154        0.18469
H          4.10340        2.12138        0.02321
H          1.41161        2.63991        0.48839
H         -0.76490        1.87391       -1.28843
H         -2.30083        2.39714        0.73061
