24
Coordinates from ORCA-job ./opt_b97-3c_parallel
N          2.40638        2.47332       -0.12843
C          1.91460        1.20341       -0.05884
N          2.56791        0.27814       -0.05602
C          3.04969       -0.74717       -0.06239
C          1.65115       -1.01488       -0.03562
C          0.98094       -2.22610       -0.03281
N         -0.36942       -2.25216       -0.02247
C         -1.09147       -1.09222       -0.00715
C         -2.47141       -1.31009       -0.00969
C         -3.52893       -0.40917        0.00264
C         -3.49262        0.97542        0.03417
C         -2.37749        1.79643        0.05326
C         -1.03624        1.43847        0.03402
C         -0.44443        0.17029        0.00256
C          0.96044        0.14190       -0.02129
H          3.39507        2.61417       -0.30029
H          1.77530        3.23739       -0.34201
H          3.87386       -1.43333        0.08778
H          1.49840       -3.18295       -0.04650
H         -2.78418       -2.35294       -0.02786
H         -4.52219       -0.85185       -0.01011
H         -4.45644        1.47902        0.04624
H         -2.57947        2.86472        0.08303
H         -0.36704        2.29338        0.05203
