28
Coordinates from ORCA-job ./opt_b97-3c_parallel
N         -0.05420       -3.34767       -0.86288
C          0.71877       -2.84562       -0.19003
C          0.89979       -1.42374       -0.14023
C          2.27669       -1.64396       -0.11729
N          3.31521       -0.72856        0.04247
C          3.05317        0.62156       -0.00123
N          4.03203        1.03924        0.28945
N          2.06594        1.40348       -0.27309
C          0.81470        1.09162       -0.19400
C          0.14031        2.31537       -0.24224
C         -1.30766        2.28077       -0.17939
N         -1.87800        3.22186       -0.24000
C         -1.92254        1.04745       -0.03209
C         -3.27881        0.62970        0.16994
N         -3.37209       -0.73500        0.40334
C         -2.08285       -1.24216        0.32914
N         -2.52795       -2.22898        0.56285
C         -1.24147       -0.18861        0.04386
C          0.20031       -0.15262       -0.08768
H          3.19395       -2.25545       -0.11469
H          4.16005        2.00835        0.58192
H          4.91804        0.57552        0.49273
H          0.66479        3.26930       -0.32881
H         -2.86668        3.45869       -0.32334
H         -1.37627        4.06415       -0.52335
H         -4.15953        1.29126        0.16801
H         -2.03815       -3.02969        0.15955
H         -3.25629       -2.63001        1.15649
