28
Coordinates from ORCA-job ./opt_b97-3c_parallel
N         -3.75911       -1.66975        0.01194
C         -2.90709       -0.97792       -0.01457
N         -3.37415        0.32247       -0.02769
C         -2.36367        1.26682       -0.04370
N         -2.32087        2.36918       -0.06105
N         -1.06857        1.18785       -0.03012
C         -0.16473        0.23594       -0.03056
C         -0.50177       -1.12908       -0.03817
C          0.51081       -2.16675       -0.06522
C          1.92041       -1.83189       -0.07049
N          2.79293       -2.88195       -0.10346
C          2.19580       -0.42046       -0.06571
C          3.41314        0.27132        0.05424
N          3.15257        1.63899        0.13380
C          1.80117        1.83347        0.09377
N          1.61912        2.91844        0.18557
C          1.22974        0.58552       -0.02145
N         -1.74313       -1.54517       -0.02335
H         -4.66654       -1.23381        0.16485
H         -3.87996       -2.66822        0.16828
H         -3.30611        2.14514        0.07658
H         -2.31303        3.31924       -0.42662
H          0.20618       -3.21014       -0.09648
H          3.78722       -2.72630        0.02377
H          2.43781       -3.82768        0.00484
H          4.37064       -0.27048        0.08519
H          0.59804        2.94027        0.20312
H          1.93044        3.88301        0.29791
