30
Coordinates from ORCA-job ./opt_b97-3c_parallel
N          1.55622        4.15004       -0.11457
C          1.31327        3.03326       -0.08758
C          1.02252        1.61198       -0.06372
C          2.08781        0.70593       -0.08732
N          3.39829        1.10768       -0.15044
C          1.77634       -0.64390       -0.02531
C          2.69307       -1.73673        0.05558
N          3.97120       -2.19090        0.19185
N          1.67888       -2.21979        0.05857
C          0.59490       -2.52088        0.08275
C          0.49400       -1.09406       -0.00704
C         -0.63225       -0.22892       -0.02603
C         -1.97996       -0.71831       -0.07308
C         -2.19970       -2.14387       -0.25311
N         -2.40091       -3.25944       -0.40560
C         -3.18585        0.04292       -0.01902
N         -4.40471       -0.58994       -0.08733
C         -3.32295        1.42944        0.10940
C         -2.30557        2.42949        0.17353
N         -1.28401        2.06953        0.08802
C         -0.31457        1.15342       -0.00411
H          4.09853        0.41171       -0.38376
H          3.59351        2.07275       -0.39499
H          4.12676       -3.16214        0.43758
H          4.70854       -1.52963        0.40561
H          0.31887       -3.17122        0.90555
H         -4.43180       -1.56492       -0.36833
H         -5.23803       -0.03070       -0.23186
H         -4.30138        1.90398        0.15155
H         -2.27427        3.32440        0.78405
