34
Coordinates from ORCA-job ./opt_b97-3c_parallel
N          5.82629        0.71320        0.07149
C          4.69679        0.53685        0.09166
C          3.26852        0.32820        0.09868
C          2.44348        1.39910        0.45156
C          1.03602        1.46425        0.46939
C          0.56637        2.75088        0.93491
N          0.21912        3.76906        1.32040
C          0.08885        0.44403        0.16671
C          0.44547       -0.90803        0.00219
N          1.72579       -1.27756       -0.14396
C          2.76633       -0.97234       -0.23551
N          3.50250       -2.02122       -0.70747
C         -0.53729       -1.90560        0.06493
C         -0.17057       -3.30870        0.00641
N          0.11165       -4.41580       -0.02677
C         -1.87133       -1.55746        0.26606
N         -2.86654       -2.49147        0.39538
C         -2.32486       -0.19487        0.19321
C         -3.63135        0.34841       -0.06123
N         -4.93839       -0.03060        0.05548
C         -3.38160        1.68622       -0.51204
C         -1.97597        1.97502       -0.52839
N         -1.74965        3.12972       -1.22304
C         -1.31905        0.82341        0.03557
H          2.97235        2.31302        0.72263
H          3.08123       -2.94244       -0.76049
H          4.51499       -1.95979       -0.71810
H         -3.82257       -2.19330        0.23530
H         -2.63974       -3.46398        0.21533
H         -5.66026        0.67626       -0.03134
H         -5.15446       -0.86824        0.58453
H         -4.15918        2.38358       -0.81159
H         -2.52490        3.77092       -1.34949
H         -0.81919        3.53214       -1.18183
