28
Coordinates from ORCA-job ./opt_b97-3c_parallel
N         -5.41546        1.44066       -0.10094
C         -4.36318        0.99624       -0.07016
C         -3.03795        0.42245       -0.02260
C         -2.03800        1.44640        0.00551
N         -0.95042        1.33386       -0.00930
C          0.01290        0.40227        0.00456
C         -0.23813       -0.99003        0.04686
C         -1.52144       -1.56369        0.04637
C         -2.78759       -0.95758        0.00253
N         -3.85705       -1.81546       -0.01970
N          0.79161       -1.88608        0.07840
C          2.07219       -1.45293        0.05267
N          3.05351       -2.39960        0.09516
C          2.35485       -0.09302       -0.01069
C          3.59920        0.59813       -0.08112
N          4.94224        0.39873       -0.20601
N          2.82447        1.42600       -0.06976
C          1.91934        2.11032       -0.08018
C          1.35068        0.80365       -0.02587
H         -2.12710        2.47297        0.34163
H         -1.53419       -2.65285        0.07145
H         -3.68999       -2.79877       -0.20292
H         -4.77635       -1.44100       -0.23027
H          3.99663       -2.09833        0.31317
H          2.79078       -3.34710        0.34120
H          5.28212       -0.53187       -0.42165
H          5.53744        1.18235       -0.44829
H          1.42504        3.06788        0.02828
