29
Coordinates from ORCA-job ./opt_b97-3c_parallel
N          5.46098        0.15833        0.33373
C          4.32777        0.24999        0.21229
C          2.89809        0.35758        0.08255
C          2.37168        1.67498        0.32108
N          1.39337        2.16791        0.17040
C          0.44716        1.67005       -0.10147
N         -0.00172        2.63553       -0.96247
C         -0.09838        0.33401       -0.07293
C          0.70473       -0.82694       -0.17059
C          2.11524       -0.77982       -0.14253
C          0.05811       -2.08610       -0.25822
N          0.75702       -3.25423       -0.41128
C         -1.33537       -2.19334       -0.17206
C         -2.09576       -1.04522       -0.00062
N         -3.43568       -0.94400        0.13869
C         -3.64770        0.15596        0.26960
N         -4.90913        0.60502        0.52539
C         -2.53475        1.07498        0.20815
C         -1.47605        0.16199        0.03219
H          2.88840        2.62694        0.26477
H          0.41598        3.55928       -0.95366
H         -0.88392        2.51123       -1.44689
H          2.67035       -1.70927       -0.24087
H          0.24174       -4.09636       -0.64379
H          1.72846       -3.20445       -0.69651
H         -1.82336       -3.16436       -0.21950
H         -5.63790       -0.06702        0.73822
H         -5.04785        1.56340        0.82440
H         -2.53586        2.14889        0.36286
