29
Coordinates from ORCA-job ./opt_b97-3c_parallel
N          5.82814        1.50840        0.03486
C          4.73179        1.18697        0.06416
C          3.34632        0.79392        0.08962
C          3.17914       -0.59929        0.36718
N          2.17426       -0.99899        0.22628
C          0.84821       -0.93674        0.04196
C          0.13662       -2.15498       -0.00513
C          0.83605       -3.42437        0.07252
N          1.38172       -4.42796        0.11882
C         -1.24920       -2.16389       -0.16036
N         -1.99885       -3.30635       -0.25594
C         -1.96800       -0.93433       -0.22842
C         -3.32888       -0.47640       -0.05300
C         -3.37093        0.86383        0.26092
C         -4.55865        1.62581        0.54323
N         -5.50480        2.23097        0.75462
C         -2.08721        1.34042        0.29618
C         -1.22203        0.29609       -0.03049
C          0.19852        0.31955       -0.06224
C          0.93928        1.53404       -0.22490
C          0.29046        2.74525       -0.67468
N         -0.19624        3.71157       -1.04578
C          2.33693        1.72151       -0.17972
H          3.78209       -1.24275        0.99797
H         -2.96522       -3.23174       -0.55376
H         -1.52051       -4.18859       -0.40747
H         -4.24788       -1.05494       -0.11442
H         -1.83427        2.34970        0.60283
H          2.70041        2.72808       -0.38990
