29
Coordinates from ORCA-job ./opt_b97-3c_parallel
N         -3.95045        2.21085        0.81734
C         -3.07660        1.51554        0.57189
C         -1.96168        0.64928        0.24908
C         -2.36185       -0.63990       -0.26763
N         -3.32156       -0.82306       -1.22694
N         -1.94767       -1.65906       -0.15795
C         -0.90790       -1.88067        0.14272
N         -1.08143       -2.99983        0.90962
C          0.36097       -1.20932       -0.00903
C          1.48058       -2.01781       -0.25928
C          2.75488       -1.47037       -0.37334
C          2.89817       -0.09800       -0.24272
N          4.04274        0.60625       -0.35868
C          3.76551        1.68983       -0.24069
C          2.37485        1.98618       -0.00146
C          1.80681        0.68682        0.00596
C          0.49008        0.19616        0.12927
C         -0.61671        1.04887        0.38874
N         -0.39802        2.33364        0.81788
H         -3.61881       -1.76535       -1.45414
H         -3.95955       -0.06413       -1.44032
H         -0.27193       -3.50255        1.25494
H         -1.97065       -3.48680        0.88698
H          1.36126       -3.09380       -0.36295
H          3.61638       -2.10365       -0.57078
H          4.60331        2.36722       -0.36129
H          1.93105        2.97226        0.07551
H         -1.19011        2.85951        1.17252
H          0.51626        2.56082        1.19214
