23
Coordinates from ORCA-job ./opt_b97-3c_parallel
N          3.87640       -1.21628        0.34040
C          3.06997       -0.46642        0.24671
C          2.99027        0.89434        0.02574
C          1.63567        1.04221       -0.01930
C          0.87122        2.24358       -0.26763
C         -0.51707        2.21735       -0.34782
C         -1.18343        0.96048       -0.16341
C         -2.55115        1.08892        0.25769
N         -3.34627        0.03574        0.53670
C         -3.17013       -1.28093        0.29342
N         -2.21305       -1.92038       -0.48586
C         -1.00130       -1.30557       -0.70699
C         -0.50788       -0.26420        0.13661
C          0.93211       -0.17615        0.17889
N          1.88014       -1.08948        0.33471
H          4.87856       -1.02798        0.35972
H          3.78186       -2.23048        0.28693
H          3.60583        1.59298        0.58919
H          1.39797        3.18672       -0.39947
H         -1.06316        3.13883       -0.54266
H         -3.43889        1.70504        0.46494
H         -4.17868       -1.49899        0.67799
H         -1.11053       -2.28990       -1.18836
