29
Coordinates from ORCA-job ./opt_b97-3c_parallel
N          4.86617       -1.84177        0.93233
C          3.82370       -1.76058        0.47033
C          2.90658       -0.67993        0.29215
C          1.47953       -0.81725        0.31531
C          0.69133        0.23084       -0.15640
C          1.46741        1.38822       -0.50659
C          0.85077        2.66833       -0.36688
C         -0.51440        2.72804       -0.14734
C         -1.29657        1.57346       -0.05550
N         -2.59826        1.78083        0.14816
C         -3.60824        1.41558        0.32036
C         -3.84470        0.00762        0.31538
C         -2.93982       -1.01818        0.02791
N         -3.54676       -2.25053       -0.02948
C         -1.53551       -0.90565       -0.18744
C         -0.91383       -2.12716       -0.67395
N         -0.44261       -3.09171       -1.06811
C         -0.73129        0.27873       -0.12813
C          2.65698        0.66578       -0.14798
N          3.76744        1.45512       -0.25006
H          1.07614       -1.68261        0.83331
H          1.43088        3.58414       -0.44570
H         -0.98525        3.70526       -0.05937
H         -4.20047        2.19883        0.77801
H         -4.90321       -0.19409        0.46745
H         -3.02363       -3.03280       -0.40952
H         -4.55904       -2.29418       -0.06577
H          3.64893        2.45506       -0.36643
H          4.64192        1.11568        0.13691
