33
Coordinates from ORCA-job ./opt_b97-3c_parallel
N         -5.06826       -0.94782       -0.04394
C         -4.05388       -0.42262       -0.06059
C         -2.79950        0.27718       -0.08589
C         -2.58701        1.64765       -0.12680
N         -3.44707        2.34889       -0.14852
C         -1.16472        1.92526       -0.12464
C         -0.80268        3.31542       -0.16935
N         -0.08631        4.18250       -0.37126
C         -0.54166        0.69613       -0.09826
C         -1.50280       -0.35047       -0.06976
C         -1.18356       -1.69662        0.02615
C         -2.13846       -2.77029        0.12954
N         -2.47559       -3.48007        0.95866
C          0.25413       -1.94689       -0.00337
N          0.61017       -2.99928        0.03937
C          1.33475       -0.90033       -0.13770
C          2.63536       -1.26428       -0.38481
N          3.34781       -2.02948       -0.75097
N          3.89433       -0.72378       -0.25557
C          3.80687        0.59300        0.13323
N          4.78430        1.06417        0.32797
N          3.02680        1.69641        0.38665
C          1.64696        1.59245        0.23460
C          0.87531        0.39605       -0.05112
H         -3.50348        3.36303       -0.23240
H         -4.40723        2.01091       -0.08763
H          1.05638       -3.44372        0.84161
H         -0.11142       -3.65106       -0.27068
H          4.06213       -2.54765       -1.26230
H          2.49407       -2.58274       -0.82437
H          5.50580        0.35927        0.47553
H          5.18953        1.95258        0.62031
H          1.95558        2.62828        0.44464
