30
Coordinates from ORCA-job ./opt_b97-3c_parallel
N          5.72211        1.21072       -0.21759
C          4.59535        1.03247       -0.15748
C          3.16893        0.82419       -0.07984
C          2.33208        1.94224       -0.08416
C          0.93090        1.97105       -0.04639
C          0.00658        0.90614       -0.02690
C          0.34574       -0.46606       -0.03641
N          1.63224       -0.85328       -0.02724
C          2.67197       -0.52129       -0.00828
N          3.41598       -1.62300        0.30824
C         -0.67024       -1.45084       -0.05377
C         -0.31944       -2.85758       -0.08025
N         -0.05557       -3.96935       -0.10571
C         -2.02511       -1.08426       -0.04502
N         -3.03776       -2.00857       -0.08344
C         -2.32578        0.27313       -0.00323
C         -3.60552        0.90255        0.05069
N         -4.93788        0.66232        0.21191
N         -2.87676        1.76371        0.00641
C         -2.01473        2.49359        0.01154
C         -1.36068        1.22136       -0.00483
H          2.82114        2.91392       -0.12535
H          0.52203        2.97637       -0.04954
H          2.99338       -2.54372        0.26158
H          4.42852       -1.56315        0.29587
H         -2.80158       -2.96905       -0.30986
H         -3.96756       -1.68367       -0.32585
H         -5.23605       -0.26404        0.49685
H         -5.55760        1.43676        0.42007
H         -1.59948        3.49335        0.03576
