28
Coordinates from ORCA-job ./opt_b97-3c_parallel
N         -5.43598        1.46622        0.06366
C         -4.37661        1.03678        0.03395
C         -3.04919        0.47973       -0.00458
C         -2.06880        1.53891       -0.02550
N         -0.96629        1.44385       -0.02448
C         -0.01745        0.47997       -0.00619
C         -0.33914       -0.89678        0.01979
C          0.68935       -1.85188        0.04755
C          2.03354       -1.47072        0.03978
N          3.02603       -2.40991        0.07563
C          2.31908       -0.10781       -0.00137
C          3.57925        0.55768       -0.04907
N          4.91605        0.32171       -0.17724
N          2.82766        1.40397       -0.02648
C          1.94319        2.11228       -0.04289
C          1.33737        0.82150       -0.01476
N         -1.62073       -1.32635        0.01512
C         -2.64175       -0.90573       -0.00960
N         -3.50699       -1.95039       -0.16756
H         -2.21432        2.60436        0.10929
H          0.43396       -2.90906        0.07196
H          2.77812       -3.36673        0.30133
H          3.96540       -2.10026        0.29994
H          5.22599       -0.61126       -0.42482
H          5.53485        1.09389       -0.39620
H          1.47449        3.08203        0.07100
H         -3.16973       -2.90317       -0.09477
H         -4.50739       -1.78803       -0.13978
