26
Coordinates from ORCA-job ./opt_b97-3c_parallel
N          5.16873        0.21823        0.00436
C          4.02575        0.18301        0.01142
C          2.58209        0.13131        0.00644
C          2.02732        1.45051       -0.03328
N          0.97030        1.72719       -0.00150
C         -0.27318        1.23207        0.01718
C         -1.32804        2.15939        0.04708
C         -2.66037        1.75223        0.04908
C         -2.91203        0.39220        0.01006
C         -4.13150       -0.26273       -0.01564
C         -3.85958       -1.62301       -0.06390
C         -2.48006       -1.79703       -0.06212
C         -1.88966       -0.53514       -0.01413
C         -0.53774       -0.15675        0.00070
C          0.44469       -1.16811        0.00837
C          1.84561       -1.06236        0.02272
N          2.53191       -2.24932        0.04717
H          2.50468        2.38104       -0.31728
H         -1.10632        3.22411        0.06636
H         -3.47030        2.47675        0.07237
H         -5.11557        0.19967       -0.00755
H         -4.59998       -2.41832       -0.10162
H         -1.97420       -2.75758       -0.10171
H          0.07996       -2.19037        0.01590
H          3.54287       -2.24533        0.13341
H          2.02920       -3.12442        0.14684
