28
Coordinates from ORCA-job ./opt_b97-3c_parallel
N          5.79372        1.06053        0.45357
C          4.76243        0.59718        0.28634
C          3.45584        0.01429        0.09570
C          3.42343       -1.36619       -0.01024
C          2.31573       -2.17371       -0.17824
C          0.97313       -1.82652       -0.20683
C          0.34027       -0.57699       -0.11876
C          0.99908        0.68371       -0.09455
C          2.38633        0.90403        0.01610
C          0.19068        1.85079       -0.16250
N          0.68767        3.12180       -0.25866
N         -1.15358        1.85043       -0.17327
C         -1.76108        0.66121       -0.11291
C         -3.20550        0.59275       -0.06640
C         -4.32256        1.42129        0.26015
N         -5.13771        2.22153        0.28560
C         -3.29323       -0.84768        0.03120
C         -2.07326       -1.50106        0.00982
C         -1.99166       -2.93091        0.17063
N         -1.94543       -4.06641        0.29479
C         -1.07800       -0.53779       -0.08790
H          4.37885       -1.88728        0.03258
H          2.52583       -3.23694       -0.27335
H          0.35918       -2.69838       -0.34874
H          2.71321        1.93693        0.08981
H          1.64951        3.23976       -0.55525
H          0.03610        3.86435       -0.48810
H         -4.21787       -1.41044        0.14277
