29
Coordinates from ORCA-job ./opt_b97-3c_parallel
N         -5.20947       -1.34906       -0.23527
C         -4.17762       -0.86517       -0.14899
C         -2.87256       -0.26264       -0.06441
C         -2.84003        1.14075       -0.38125
N         -2.10821        1.94928       -0.19687
C         -1.05012        1.81477        0.08719
N         -0.99197        2.79551        1.04045
C         -0.06337        0.76493       -0.00297
C         -0.39663       -0.60415        0.13434
C         -1.73818       -1.04890        0.16594
C          0.64986       -1.56394        0.19737
N          0.37202       -2.89256        0.40886
C          1.99629       -1.18067        0.03015
C          3.07932       -2.13896        0.06248
N          3.94089       -2.88861        0.09732
C          2.27212        0.16233       -0.18756
C          3.48576        0.79898       -0.41265
C          3.21899        2.15495       -0.56053
C          1.85009        2.35030       -0.42034
C          1.27349        1.10752       -0.19299
H         -3.66799        1.83781       -0.44719
H         -1.70455        3.51632        1.07004
H         -0.12430        2.96052        1.53877
H         -1.93836       -2.10724        0.30826
H         -0.54091       -3.14488        0.76995
H          1.14588       -3.51512        0.61805
H          4.46493        0.32902       -0.47093
H          3.95511        2.93029       -0.75891
H          1.33072        3.30288       -0.49471
