30
Coordinates from ORCA-job ./opt_b97-3c_parallel
N          4.76015        2.01838        0.61139
C          3.78661        1.45869        0.39731
C          2.54511        0.74752        0.14925
C          1.43752        1.58967        0.05764
C          0.06346        1.32695       -0.07168
C         -0.77960        2.46685       -0.17367
N         -0.31829        3.73551       -0.39607
N         -2.12320        2.42863       -0.14293
C         -2.68494        1.22235       -0.02096
C         -4.12110        1.09076        0.02656
C         -4.17734       -0.34377        0.17566
C         -2.93643       -0.95172        0.13046
C         -2.80790       -2.38277        0.25112
N         -2.71761       -3.51976        0.32644
C         -1.96595        0.04236        0.00439
C         -0.54804        0.05031       -0.06147
C          0.13033       -1.17187       -0.16150
C          1.48850       -1.49487       -0.18211
C          1.73497       -2.91432       -0.36826
N          1.93453       -4.02883       -0.52614
C          2.59148       -0.64637       -0.00118
N          3.83938       -1.23656        0.02407
H          1.71001        2.63768        0.15430
H         -1.01228        4.45153       -0.58047
H          0.56603        3.82799       -0.88381
H         -4.86094        1.82968        0.31881
H         -5.08194       -0.93635        0.30992
H         -0.48851       -2.04236       -0.29003
H          3.93043       -2.24261       -0.07334
H          4.66847       -0.67334        0.18285
