29
Coordinates from ORCA-job ./opt_b97-3c_parallel
N          3.22941        2.87617        0.25970
C          2.72067        1.85388        0.20038
C          2.06861        0.56346        0.10790
C          2.99780       -0.54716        0.06985
N          4.32168       -0.46332       -0.28034
N          3.01180       -1.64775        0.13866
C          2.10451       -2.27528        0.13012
C          0.68463       -2.09503        0.01407
C          0.02174       -0.86063        0.00603
C          0.66302        0.40878        0.06898
C         -0.14578        1.56898        0.08847
C         -1.53809        1.50085        0.03677
N         -2.29250        2.64024        0.06607
C         -2.12466        0.24430       -0.04517
C         -3.50595       -0.10359       -0.12473
N         -4.78405        0.36296       -0.20821
N         -2.97168       -1.10033       -0.12786
C         -2.27637       -1.99178       -0.14158
C         -1.37885       -0.88228       -0.05859
H          4.76277        0.44809       -0.33886
H          4.92307       -1.27223       -0.17012
H          2.66425       -3.20222        0.18250
H          0.15636       -3.04333       -0.03327
H          0.29664        2.56007        0.14088
H         -3.28791        2.55036        0.23863
H         -1.84388        3.51331        0.31999
H         -5.53560       -0.28092       -0.42703
H         -4.94005        1.34922       -0.38336
H         -2.10759       -3.03655        0.08884
