32
Coordinates from ORCA-job ./opt_b97-3c_parallel
N         -5.32165       -0.46587        0.94258
C         -4.21871       -0.41744        0.63520
C         -2.82714       -0.33718        0.23694
C         -2.28827       -1.58821       -0.24765
N         -3.02200       -2.49856       -0.96159
N         -1.26964       -2.00863       -0.17245
C         -0.35350       -1.49496        0.17037
C          0.14643       -0.15000        0.00529
C         -0.70689        0.98513       -0.00960
C         -0.09517        2.25327       -0.24757
N         -0.79936        3.39846       -0.50948
C          1.29197        2.39276       -0.32419
C          2.10197        1.27921       -0.19603
N          3.44983        1.26096       -0.19379
C          3.66239        0.16771       -0.05594
N          4.99679       -0.10868        0.05178
C          2.62558       -0.84342        0.03381
C          2.87809       -2.23784        0.21657
N          3.03902       -3.30737        0.59060
C          1.52908        0.04981       -0.06917
C         -2.10014        0.87105        0.27614
N         -2.79360        1.96650        0.73167
H         -2.65996       -3.43537       -1.09335
H         -4.03028       -2.38451       -0.99956
H          0.14690       -2.44146       -0.00026
H         -1.77201        3.29639       -0.78156
H         -0.29499        4.19683       -0.87920
H          1.74327        3.37053       -0.48306
H          5.65368        0.65721        0.14502
H          5.29610       -1.02846        0.35562
H         -3.68311        1.80970        1.19380
H         -2.25077        2.77102        1.02759
