33
Coordinates from ORCA-job ./opt_b97-3c_parallel
N          4.82987        2.77946       -0.51772
C          3.98308        2.03477       -0.33045
C          2.89807        1.09386       -0.11373
C          1.64354        1.70678       -0.07058
C          0.33959        1.19019        0.04804
C         -0.72229        2.14150        0.10915
N         -0.47531        3.49232        0.20808
C         -2.06954        1.74235        0.10025
C         -3.15408        2.70195        0.15215
N         -4.00055        3.46980        0.20122
C         -2.36466        0.38893        0.02888
N         -3.59326       -0.16935       -0.02642
C         -3.37216       -1.26420       -0.08159
N         -4.49311       -2.03842       -0.20350
C         -2.01882       -1.78329       -0.05466
C         -1.86568       -3.20346       -0.18321
N         -1.40756       -4.22235       -0.42489
C         -1.35114       -0.52468        0.02778
C          0.01497       -0.18697        0.07147
C          0.90982       -1.25941        0.16427
C          2.30191       -1.31500        0.20481
C          2.81351       -2.66048        0.39491
N          3.20696       -3.72133        0.55750
C          3.21749       -0.26320        0.05204
N          4.55716       -0.59475        0.06506
H          1.72294        2.78425       -0.18192
H         -1.25281        4.10568        0.43078
H          0.45105        3.79731        0.48428
H         -4.40475       -3.02624       -0.41608
H         -5.39205       -1.59525       -0.35848
H          0.45393       -2.23658        0.25836
H          4.82843       -1.57258        0.05133
H          5.24572        0.10327       -0.19670
