27
Coordinates from ORCA-job ./opt_b97-3c_parallel
N         -2.68785        3.51972        0.08779
C         -1.99180        2.61375        0.05419
C         -1.09660        1.48379        0.01871
C          0.28710        1.69048       -0.02453
C          1.20916        0.61821       -0.04655
C          2.59662        0.89897       -0.10554
N          3.03839        2.18868       -0.24030
C          3.60922       -0.06447       -0.04394
C          3.39615       -1.47440        0.14038
N          2.55918       -2.19221        0.12329
C          1.51513       -1.87505       -0.03469
C          0.68821       -0.69571       -0.01647
C         -0.69433       -0.85209        0.00995
C         -1.51100       -2.00030        0.01250
C         -2.81582       -1.38099        0.02825
N         -3.94966       -2.13735        0.00978
N         -2.86097       -0.25515        0.04211
C         -1.57958        0.17892        0.02502
H          0.63470        2.72060       -0.02892
H          4.01313        2.33991       -0.47599
H          2.37362        2.89958       -0.52361
H          4.65889        0.21627       -0.09739
H          4.10388       -2.21868        0.48810
H          1.22451       -2.90983        0.10634
H         -1.26316       -3.05641       -0.01675
H         -4.86060       -1.69180        0.01157
H         -3.89836       -3.14943       -0.01369
