27
Coordinates from ORCA-job ./opt_b97-3c_parallel
N          4.45553       -0.71355        0.01033
C          3.37178       -0.48873       -0.04919
C          2.25741       -1.27093        0.14657
C          1.25512       -0.36025       -0.02566
C          1.70610        0.95889       -0.33703
N          3.07501        0.83458       -0.35021
N          0.81728        2.01561       -0.54589
C         -0.54476        1.78191       -0.40469
N         -0.86303        2.81082       -0.65843
C         -1.06600        0.49893       -0.00042
C         -2.48780        0.32980        0.21720
N         -2.97773        1.04231        0.91173
C         -3.25951       -0.57305       -0.45404
C         -2.74284       -1.82045       -0.27621
N         -1.68047       -2.60371        0.11686
C         -0.52379       -1.92772        0.46682
C         -0.16919       -0.56360        0.13252
H          4.84103       -1.66015        0.00328
H          5.26515       -0.10705        0.16428
H          2.19036       -2.26698       -0.29071
H         -1.82965        2.62307       -0.93735
H         -0.83422        3.81389       -0.46432
H         -3.86676        0.56864        1.07581
H         -3.00413        1.87528        1.50281
H         -4.33680       -0.44105       -0.56016
H         -3.45682       -2.63876       -0.46061
H         -0.50018       -3.02794        0.51615
