33
Coordinates from ORCA-job ./opt_b97-3c_parallel
N         -5.27407       -0.57357        0.61222
C         -4.17970       -0.25745        0.50649
C         -2.78311       -0.00357        0.31873
C         -2.29380        1.26699       -0.14754
N         -3.08386        2.34561       -0.44090
C         -0.87033        1.11523       -0.30283
C          0.21216        2.05686       -0.33094
N         -0.17564        3.34857       -0.58211
C          1.51319        1.71895        0.04689
C          2.46867        2.81005        0.13708
N          3.21662        3.67300        0.19258
C          1.88967        0.36291        0.20405
C          3.22308        0.11303        0.58804
C          3.91941       -1.07683        0.72527
C          3.53347       -2.34501        0.34585
C          2.34305       -2.71622       -0.24848
C          1.18219       -1.96891       -0.44565
C          0.16867       -2.73457       -1.14083
N         -0.61591       -3.34827       -1.70191
C          0.91691       -0.62187       -0.09671
C         -0.50058       -0.24849       -0.05840
C         -1.67602       -0.91368        0.44791
N         -1.91672       -2.08737        1.10944
H         -4.09065        2.21949       -0.44604
H         -2.69581        3.09147       -1.00713
H          0.48463        4.09298       -0.38298
H         -1.16268        3.56952       -0.51356
H          3.84566        0.95316        0.87743
H          4.92950       -0.99119        1.12056
H          4.27283       -3.13183        0.47892
H          2.31021       -3.76187       -0.55415
H         -1.23076       -2.82861        1.01789
H         -2.88509       -2.37147        1.21816
