28
Coordinates from ORCA-job ./opt_b97-3c_parallel
N          4.66681        2.23445        0.00603
C          3.80109        1.48786        0.00540
C          2.71276        0.52985        0.00400
C          1.44480        1.11323        0.00213
C          0.16456        0.54597        0.00031
C         -0.87147        1.50469       -0.00128
C         -2.21913        1.15320       -0.00322
C         -3.24336        2.16723       -0.00472
N         -4.04730        2.97986       -0.00577
C         -2.52484       -0.19658       -0.00343
C         -3.76768       -0.81224       -0.00503
C         -3.54371       -2.18035       -0.00444
C         -2.17151       -2.39863       -0.00251
C         -1.53335       -1.15756       -0.00189
C         -0.16334       -0.83040       -0.00005
C          0.74272       -1.89599        0.00139
C          2.13077       -1.89790        0.00347
C          3.02747       -0.83612        0.00471
N          4.34707       -1.21504        0.00718
H          1.46372        2.20290        0.00230
H         -0.63005        2.56638       -0.00097
H         -4.73772       -0.32014       -0.00646
H         -4.31112       -2.95058       -0.00541
H         -1.70625       -3.37998       -0.00167
H          0.33154       -2.89864        0.00095
H          2.57284       -2.89300        0.00425
H          4.60002       -2.19687        0.00538
H          5.07780       -0.51039        0.00620
