31
Coordinates from ORCA-job ./opt_b97-3c_parallel
N          6.01895        2.11637       -0.02828
C          4.96812        1.66617       -0.02654
C          3.64865        1.08250       -0.02382
C          3.57687       -0.29578       -0.08956
C          2.46081       -1.11906       -0.08505
C          1.07546       -0.84328       -0.02658
C          0.22140       -1.98412        0.01131
C          0.71526       -3.34960        0.06122
N          1.09192       -4.42767        0.10646
C         -1.16565       -1.84691        0.03180
N         -2.05127       -2.88963        0.11699
C         -1.77536       -0.56806       -0.05714
C         -2.99030        0.20379       -0.07393
N         -4.14347       -0.50836       -0.25504
C         -3.10912        1.62617        0.10236
C         -4.07690        2.67651        0.04759
N         -5.18359        2.94597       -0.04849
C         -1.67983        1.74450        0.10520
C         -0.92322        0.57541        0.02534
C          0.49494        0.46063        0.01121
C          1.21496        1.67319        0.04306
C          2.57543        1.95179        0.03845
H          4.52950       -0.82138       -0.14282
H          2.78317       -2.15193       -0.14184
H         -3.01219       -2.68079        0.36182
H         -1.69078       -3.80843        0.35561
H         -5.01570       -0.00633       -0.38081
H         -4.07984       -1.45464       -0.61756
H         -1.29775        2.75568        0.18256
H          0.65928        2.59741        0.07789
H          2.82420        3.01108        0.08136
