33
Coordinates from ORCA-job ./opt_b97-3c_parallel
N         -5.37059       -2.23098        0.33926
C         -4.24104       -2.21801        0.15743
C         -3.10003       -1.36989        0.01601
C         -1.68010       -1.57287        0.01321
C         -0.87129       -0.44268        0.01005
C         -1.58209        0.79897        0.00045
C         -2.79965        0.03608        0.10297
N         -3.80149        0.94916        0.29185
C         -0.79412        1.98345       -0.13700
N         -1.52762        3.12971       -0.29506
C          0.60281        1.94612       -0.08600
C          1.29722        3.21546       -0.18262
N          1.83851        4.21846       -0.27013
C          1.28925        0.71030        0.02900
C          2.70437        0.73289        0.14172
C          3.62482       -0.31888        0.28076
N          4.93620        0.03117        0.45261
C          3.34852       -1.68572        0.26372
C          2.06231       -2.26815        0.03300
N          1.90625       -3.56496       -0.36009
N          1.13566       -1.68864        0.03610
C          0.53495       -0.48754        0.03158
H         -1.26985       -2.57975        0.02493
H         -3.55397        1.89549        0.56017
H         -4.73149        0.61415        0.52138
H         -2.50831        3.04107       -0.53823
H         -1.04398        3.97652       -0.57725
H          3.18936        1.70365        0.16241
H          5.65225       -0.68394        0.38743
H          5.20941        0.99995        0.32713
H          4.15000       -2.41015        0.39596
H          1.00732       -3.88392       -0.70153
H          2.72398       -4.12565       -0.57418
