26
Coordinates from ORCA-job ./opt_b97-3c_parallel
N         -5.15032       -0.67032       -0.04345
C         -4.09829       -0.22509       -0.07811
C         -2.76736        0.32118       -0.11993
C         -2.44359        1.66114       -0.29656
C         -1.05758        1.77950       -0.28271
C         -0.52929        0.50730       -0.09779
C         -1.57817       -0.38237       -0.00261
C         -1.36107       -1.74019        0.18194
C         -0.03977       -2.18754        0.23996
C          1.04636       -1.29978        0.12473
C          2.32843       -1.87426        0.13581
C          3.52961       -1.20007       -0.09370
C          3.61773        0.19921       -0.41452
N          2.94140        1.06603       -0.29387
C          1.86973        1.05905       -0.02734
N          1.89587        2.14888        0.80071
C          0.80013        0.08662       -0.01140
H         -3.15095        2.47639       -0.42818
H         -0.49782        2.70278       -0.40833
H         -2.19053       -2.43895        0.26365
H          0.14061       -3.25350        0.36074
H          2.40406       -2.94741        0.29739
H          4.47098       -1.74372       -0.08410
H          4.46693        0.75082       -0.80026
H          2.66432        2.80719        0.73979
H          1.03849        2.45731        1.24479
