24
Coordinates from ORCA-job ./opt_b97-3c_parallel
N          2.94116       -2.77632       -0.24269
C          2.96246       -1.68947        0.11111
C          2.26887       -0.44139        0.10401
C          3.15726        0.69833        0.12364
N          2.73375        1.74124        0.11340
C          1.39312        1.59717        0.07687
N          0.44708        2.55721        0.04049
C         -0.84866        2.15975       -0.00751
C         -1.27438        0.81437       -0.01629
C         -2.65617        0.51825       -0.07489
N         -3.57075        1.52631       -0.23110
C         -3.19619       -0.76884        0.01612
C         -2.43198       -1.96635        0.24144
N         -1.37537       -2.27461        0.17245
C         -0.53215       -1.58492        0.00075
C         -0.26483       -0.17004        0.02863
C          1.05305        0.27532        0.07304
H          4.24023        0.73431        0.14263
H         -1.55753        2.98434       -0.02514
H         -4.52681        1.27541       -0.45826
H         -3.24059        2.43400       -0.53925
H         -4.27029       -0.93398       -0.03455
H         -2.76813       -2.90676        0.66340
H          0.04471       -2.37256       -0.47133
