31
Coordinates from ORCA-job ./opt_b97-3c_parallel
N         -3.50730       -3.32072        0.17764
C         -2.60981       -2.61561        0.13308
C         -1.48043       -1.70868        0.08127
C         -0.16154       -2.19273        0.04323
N          0.03930       -3.55241        0.05346
C          0.93387       -1.29863       -0.00123
C          2.24502       -1.82541       -0.07514
C          3.43878       -1.10221       -0.13480
C          3.52047        0.33244       -0.09812
N          4.70935        1.00230       -0.04861
N          2.82811        1.18686       -0.02459
C          1.73294        1.06224        0.02434
C          0.66933        0.08927        0.01529
C         -0.65076        0.55445        0.02744
C         -0.99610        1.95070       -0.00502
C         -0.60304        3.23039       -0.51038
N         -0.09909        4.16523       -0.08777
C         -2.38020        1.53645        0.01374
N         -3.48267        2.34747        0.03278
C         -3.02186        0.24709        0.07559
C         -1.70930       -0.33243        0.06181
H         -0.74983       -4.15770        0.25364
H          0.96968       -3.90882        0.23986
H          2.38228       -2.90141       -0.10779
H          4.38464       -1.63319       -0.20851
H          4.72115        2.00301        0.11506
H          5.58053        0.49041        0.02955
H          1.79819        1.98579        0.59132
H         -4.39605        1.93823       -0.13091
H         -3.36062        3.33415       -0.16990
H         -3.85349       -0.09271       -0.53712
