29
Coordinates from ORCA-job ./opt_b97-3c_parallel
N          5.86279       -0.43829        0.05085
C          4.72673       -0.30530        0.04827
C          3.29327       -0.15077        0.03669
C          2.80629        1.14476       -0.03261
C          1.49363        1.60113       -0.04333
C          0.26400        0.90974       -0.01463
C         -0.93005        1.69953       -0.02820
C         -0.89890        3.15234       -0.04110
N         -0.88781        4.29512       -0.04639
C         -2.20377        1.10268       -0.02551
N         -3.36646        1.83241       -0.03706
C         -2.27222       -0.27997       -0.02362
C         -3.42758       -1.11877       -0.04826
N         -2.56489       -1.84729       -0.04210
C         -1.58537       -2.40616       -0.05784
N         -1.53500       -3.76483       -0.16171
C         -1.15928       -1.04110       -0.00745
C          0.13954       -0.50573        0.01708
C          1.16644       -1.45978        0.07566
C          2.54419       -1.31288        0.09411
H          3.55754        1.93238       -0.07562
H          1.47656        2.68425       -0.09145
H         -3.31459        2.83311        0.12332
H         -4.24183        1.36111        0.15994
H         -4.47294       -0.84105        0.00702
H         -2.39103       -4.27950       -0.33442
H         -0.66053       -4.20750       -0.42133
H          0.87088       -2.50261        0.12436
H          3.10370       -2.24665        0.15401
