32
Coordinates from ORCA-job ./opt_b97-3c_parallel
N         -5.12541        1.66390       -0.43038
C         -4.13284        1.11071       -0.29731
C         -2.87310        0.39504       -0.11852
C         -2.93370       -0.98970       -0.32877
N         -4.11016       -1.56800       -0.74692
C         -1.95852       -1.90900        0.01672
C         -0.62054       -1.72302        0.33664
N         -0.05700       -2.87058        0.82681
C          0.15395       -0.55144        0.18998
C         -0.37145        0.77685        0.21293
C          0.55380        1.85894        0.20096
C          1.92783        1.69608        0.13544
C          2.41255        0.41318        0.05672
C          3.72715        0.00478       -0.09924
C          4.89173        0.84650       -0.19730
N          5.81070        1.52008       -0.28631
C          3.71394       -1.37214       -0.21498
C          2.39428       -1.79389       -0.12407
C          1.56712       -0.67857        0.07588
C         -1.74246        1.15392        0.26272
N         -2.01856        2.44884        0.65691
H         -4.83559       -0.96869       -1.12762
H         -4.09993       -2.54021       -1.03468
H         -2.29440       -2.94681        0.02158
H          0.83150       -2.79014        1.30928
H         -0.67602       -3.61964        1.11683
H          0.23385        2.89652        0.19259
H          2.59116        2.55737        0.10064
H          4.57867       -2.00920       -0.38441
H          2.09747       -2.82973       -0.24888
H         -1.30163        2.95327        1.16605
H         -2.98379        2.69105        0.85571
