28
Coordinates from ORCA-job ./opt_b97-3c_parallel
N         -5.21562       -2.18698        0.00637
C         -4.34781       -1.44277        0.00128
C         -3.23712       -0.51092        0.00103
C         -1.98453       -1.12582        0.00091
C         -0.69175       -0.58958        0.00079
C          0.32085       -1.57105        0.00063
C          1.67190       -1.23945       -0.00008
C          2.68433       -2.26399       -0.00042
N          3.47771       -3.08540       -0.00028
C          1.98869        0.10561       -0.00072
C          3.24257        0.75704       -0.00114
C          4.65523        0.54697       -0.00197
N          5.68742        0.05651       -0.00201
C          2.75181        2.11596       -0.00110
N          1.64137        2.30372       -0.00058
C          1.04607        1.08843       -0.00010
C         -0.32918        0.77776        0.00045
C         -1.20740        1.86722        0.00075
C         -2.59539        1.90311        0.00162
C         -3.51750        0.86279        0.00167
N         -4.82769        1.27325        0.00289
H         -2.02955       -2.21481        0.00092
H          0.05918       -2.62792        0.00107
H          3.30487        3.04811       -0.00156
H         -0.76402        2.85946        0.00062
H         -3.01315        2.90871        0.00220
H         -5.05640        2.26094        0.00293
H         -5.57514        0.58655        0.00313
