30
Coordinates from ORCA-job ./opt_b97-3c_parallel
N          5.78484       -0.34973       -0.80160
C          5.06601        0.14264       -0.06074
C          3.67382        0.21056        0.25679
C          3.01009        1.47588        0.36615
C          1.62695        1.46047        0.38213
C          0.87996        2.63017        0.38789
N         -0.46465        2.62935        0.30729
C         -1.15549        1.46339        0.24395
C         -2.54157        1.61054        0.12628
C         -3.48171        0.53907       -0.06088
N         -4.63241        0.69607       -0.78126
N         -3.48924       -0.54858        0.12954
C         -2.60054       -1.18477        0.29152
N         -3.25914       -2.36671        0.06458
C         -1.16277       -1.03727        0.36673
C         -0.44136       -2.26995        0.60051
N          0.12093       -3.24553        0.79845
C         -0.50073        0.20565        0.30484
C          0.94925        0.19800        0.34234
C          2.30477       -0.18278        0.02510
N          2.33711       -1.28753       -0.78277
H          3.54947        2.42103        0.38544
H          1.35326        3.61022        0.41513
H         -2.99320        2.60103        0.11293
H         -4.79541        1.56280       -1.28126
H         -5.14981       -0.12446       -1.07663
H         -2.76329       -3.24624        0.16017
H         -4.27286       -2.38750        0.05296
H          3.23016       -1.74401       -0.93659
H          1.50025       -1.85573       -0.85716
