27
Coordinates from ORCA-job ./opt_b97-3c_parallel
N          5.50751        1.91401       -0.00382
C          4.54678        1.29473       -0.00281
C          3.34695        0.49817       -0.00189
C          3.42853       -0.89474       -0.00148
C          2.36751       -1.80877       -0.00099
C          0.98111       -1.56892       -0.00133
C          0.16782       -2.71762       -0.00111
C         -1.22274       -2.62918       -0.00093
C         -1.78767       -1.36515       -0.00100
C         -3.12359       -1.01849       -0.00119
C         -3.30294        0.42153       -0.00200
C         -4.62100        0.97184        0.00010
N         -5.39505        1.81260        0.00204
C         -1.91048        0.84009       -0.00276
N         -1.52649        2.15182       -0.00706
C         -1.02523       -0.23403       -0.00163
C          0.37820       -0.29008       -0.00180
N          1.10873        0.83498       -0.00161
C          2.12412        1.24408       -0.00146
H          4.42783       -1.32529       -0.00139
H          2.67819       -2.85131       -0.00010
H          0.62042       -3.70683       -0.00110
H         -1.84103       -3.52372       -0.00094
H         -3.88871       -1.79145       -0.00105
H         -0.54049        2.38910        0.00467
H         -2.22466        2.88746        0.00474
H          1.98407        2.31856        0.00153
