27
Coordinates from ORCA-job ./opt_b97-3c_parallel
N         -5.53878        0.44320        0.58273
C         -4.41352        0.52971        0.40283
C         -2.99508        0.64048        0.19055
C         -2.29980        1.81570       -0.01701
C         -0.96385        1.46693       -0.10482
C          0.10408        2.31832       -0.23009
C          1.38077        1.77617       -0.16256
C          2.43383        2.76536       -0.26329
N          3.25810        3.55192       -0.35565
C          1.60138        0.37067       -0.02072
C          2.94837       -0.00177        0.17679
C          3.54167       -1.23755        0.36579
C          2.97188       -2.48581        0.26842
C          1.66429       -2.78248       -0.05255
C          0.56350       -1.93752       -0.20885
C         -0.55748       -2.70462       -0.70963
N         -1.41881       -3.33474       -1.12085
C          0.48049       -0.52244       -0.06424
C         -0.79937        0.09935       -0.00822
C         -2.08705       -0.40776        0.22074
H         -2.71631        2.81969       -0.05426
H         -0.05361        3.39192       -0.31972
H          3.69685        0.77830        0.25871
H          4.60954       -1.22353        0.57366
H          3.64243       -3.33262        0.39716
H          1.48813       -3.85062       -0.18397
H         -2.37157       -1.42796        0.45402
