31
Coordinates from ORCA-job ./opt_b97-3c_parallel
N         -4.95000        1.91260        0.16121
C         -3.98701        1.30677        0.05297
C         -2.76114        0.55437       -0.09099
C         -3.00191       -0.71847       -0.72087
N         -2.55517       -1.70567       -0.49697
C         -1.56214       -1.85745       -0.03808
N         -1.87825       -2.79069        0.91222
C         -0.30942       -1.12981       -0.05904
C          0.88496       -1.87175       -0.19916
N          0.87241       -3.23035       -0.36689
C          2.12380       -1.24049       -0.16867
C          2.14970        0.13419       -0.01779
C          3.25352        0.97213       -0.01265
C          4.63432        0.58503       -0.14418
N          5.72637        0.26648       -0.25372
C          2.78552        2.27027        0.09083
C          1.39895        2.22368        0.15609
C          0.99281        0.88521        0.10938
C         -0.28887        0.28494        0.10108
C         -1.48512        1.04195        0.25115
N         -1.44528        2.30802        0.77465
H         -3.86354       -1.04014       -1.29465
H         -1.13159       -3.20773        1.45718
H         -2.74281       -3.31293        0.82360
H          1.72814       -3.70068       -0.64021
H         -0.01232       -3.68810       -0.56066
H          3.04575       -1.80812       -0.27698
H          3.39448        3.17115        0.09187
H          0.77505        3.10982        0.19441
H         -2.32245        2.74147        1.04427
H         -0.61171        2.58913        1.27866
