31
Coordinates from ORCA-job ./opt_b97-3c_parallel
N         -5.46357        1.83512        0.15761
C         -4.34356        1.97682       -0.02182
C         -3.16020        1.17906       -0.09424
C         -1.77089        1.53303       -0.08651
C         -0.83569        0.50456       -0.04325
C         -1.38641       -0.81560       -0.01601
C         -2.67015       -0.16688        0.04591
N         -3.58810       -1.15290        0.27996
C         -0.45606       -1.89938       -0.06537
N         -1.04289       -3.13450       -0.15151
C          0.92574       -1.68676       -0.02051
C          1.77466       -2.86213       -0.04413
N          2.43608       -3.79389       -0.07303
C          1.45204       -0.37030        0.02193
C          2.86000       -0.20401        0.09716
C          3.63825        0.96541        0.13861
N          4.99155        0.79894        0.24514
C          3.18493        2.28393        0.08209
C          1.82336        2.70325       -0.04172
N          1.00011        1.98502       -0.03723
C          0.55335        0.72115       -0.01670
H         -1.48189        2.58113       -0.10923
H         -3.25783       -2.05811        0.59644
H         -4.54078       -0.88571        0.50563
H         -0.45740       -3.93135       -0.37882
H         -2.02477       -3.18254       -0.40024
H          3.46797       -1.10205        0.14557
H          5.38479       -0.13018        0.14168
H          5.60072        1.59841        0.11093
H          3.88203        3.11821        0.12154
H          1.44110        3.66812       -0.35174
