33
Coordinates from ORCA-job ./opt_b97-3c_parallel
N         -5.21232       -1.61464       -0.08581
C         -4.14168       -1.21847       -0.01522
C         -2.77170       -0.71704        0.05672
C         -1.78357       -1.69842        0.23913
N         -2.15628       -3.01560        0.38114
C         -0.40852       -1.52603        0.27043
C          0.37165       -0.38272        0.16493
C         -0.03704        0.96546        0.07823
N          0.93441        1.93186        0.07396
C          2.25321        1.66493        0.12790
C          2.73982        0.36942        0.16542
C          4.08668        0.03831        0.17116
N          5.08024        0.97883        0.15702
C          4.38483       -1.36133        0.15438
C          2.96279       -1.50096       -0.04212
N          2.67657       -2.70834       -0.61722
C          1.78616       -0.69200        0.17230
C         -1.37791        1.42596       -0.00703
C         -1.53630        2.87928       -0.08220
N         -1.67818        4.01327       -0.14275
C         -2.58736        0.68139       -0.05382
N         -3.75065        1.41715       -0.21618
H         -3.13721       -3.23142        0.52799
H         -1.46888       -3.68698        0.70543
H          0.15774       -2.44908        0.39044
H          2.91239        2.53045        0.11695
H          6.03138        0.68085       -0.02993
H          4.83779        1.94617       -0.02549
H          5.16378       -1.81675       -0.45012
H          3.43923       -3.26638       -0.98530
H          1.75023       -2.85500       -1.00305
H         -3.68205        2.39964       -0.46129
H         -4.61567        0.93147       -0.42937
