31
Coordinates from ORCA-job ./opt_b97-3c_parallel
N          5.74711        0.54137       -0.18508
C          4.60646        0.51285       -0.11694
C          3.16319        0.46093       -0.05170
C          2.57334        1.70064       -0.48679
N          1.60237        2.18277       -0.26345
C          0.70790        1.69701        0.16301
N          0.36507        2.56431        1.16323
C          0.18708        0.35356        0.07887
C          1.02134       -0.78554        0.17912
C          0.40260       -2.05560        0.18277
C         -0.97972       -2.20813        0.05094
C         -1.55131       -3.53132        0.00711
N         -1.98936       -4.58580       -0.04075
C         -1.77537       -1.07244       -0.07275
N         -3.11811       -1.01218       -0.20762
C         -3.31254        0.09190       -0.27085
N         -4.62823        0.42693       -0.41851
C         -2.25424        1.08036       -0.20890
C         -2.47273        2.49209       -0.33378
N         -2.70168        3.60389       -0.22082
C         -1.18847        0.15830       -0.05917
C          2.43536       -0.70765        0.24055
N          3.15844       -1.83412        0.55102
H          3.01530        2.49063       -1.08324
H          0.69532        3.52229        1.11367
H         -0.48753        2.39992        1.68698
H          0.99762       -2.96306        0.24662
H         -5.33076       -0.29708       -0.52048
H         -4.90319        1.39613       -0.53406
H          2.67930       -2.59913        1.01349
H          4.14952       -1.72531        0.74301
