27
Coordinates from ORCA-job ./opt_b97-3c_parallel
N          5.52696        0.70117        0.91683
C          4.53522        0.28026        0.53929
C          3.27514       -0.23873        0.11569
C          3.08152       -1.52743       -0.29757
C          1.71004       -1.53843       -0.34375
C          0.92654       -2.71701       -0.53722
N         -0.40303       -2.57984       -0.40614
C         -1.05583       -1.41341       -0.21644
N         -2.41232       -1.59290       -0.01563
C         -3.20589       -0.50433        0.17155
N         -4.18887       -0.95677        0.41295
N         -3.37977        0.84858        0.19353
C         -2.27235        1.63122       -0.08022
N         -2.90855        2.54683       -0.09430
C         -0.87176        1.22761       -0.21841
C         -0.06565        2.36779       -0.53632
N          0.52064        3.30874       -0.80263
C         -0.30139       -0.14579       -0.17342
C          1.09065       -0.32803       -0.14931
C          2.09115        0.54460        0.17978
H          3.64617       -2.34980        0.13989
H          1.40584       -3.69717       -0.69380
H         -4.43319       -1.94892        0.47272
H         -5.01754       -0.47858        0.77512
H         -2.22325        3.30639       -0.16954
H         -3.80412        3.02615       -0.22881
H          2.06948        1.56347        0.55014
