27
Coordinates from ORCA-job ./opt_b97-3c_parallel
N          2.16289       -3.49011        0.17917
C          2.12571       -2.35137        0.12175
C          2.02505       -0.92817        0.04800
C          3.18102       -0.17940       -0.00583
N          4.29064       -0.25946       -0.01612
N          2.98820        1.14612       -0.06934
C          1.60622        1.26301       -0.05693
N          0.87762        2.44558       -0.11529
C         -0.52115        2.37605       -0.09113
N         -0.66403        3.47701       -0.15237
C         -1.21669        1.09349       -0.00991
C         -2.66470        1.22111        0.01502
N         -3.60375        0.19545        0.02697
C         -3.17056       -1.10806        0.04032
N         -4.13979       -1.63689        0.01397
N         -2.17973       -2.05654        0.06343
C         -0.89395       -1.55060        0.08411
C         -0.46829       -0.16471        0.03284
C          0.92367        0.00726        0.01712
H          5.13797        0.31623       -0.00759
H          4.64868       -1.21960       -0.01781
H         -1.42192        3.88845       -0.70539
H         -0.20940        4.29542        0.26612
H         -3.56254        1.85937        0.00769
H         -5.10260       -1.29771        0.06336
H         -4.22898       -2.64501       -0.12718
H         -0.85760       -2.65295        0.09979
