28
Coordinates from ORCA-job ./opt_b97-3c_parallel
N          5.26223       -1.04267       -0.28602
C          4.14688       -0.80851       -0.18818
C          2.91532       -0.08588       -0.11880
C          2.53768        1.30967       -0.02673
N          3.49196        2.28543        0.02346
N          1.45816        1.63370        0.02081
C          0.77511        0.46703       -0.01439
C          1.60536       -0.60880       -0.10014
N          1.23265       -1.89984       -0.12575
C         -0.10215       -2.10887       -0.05528
C         -1.07125       -1.08521        0.03640
C         -2.43735       -1.44204        0.13527
N         -2.79649       -2.75905        0.25690
C         -3.50419       -0.53798        0.13251
C         -3.38128        0.88470       -0.04712
N         -4.42908        1.65156       -0.46883
N         -2.56431        1.62011        0.04040
C         -1.48885        1.38653        0.14224
C         -0.60495        0.25216        0.04260
H          3.22909        3.26249        0.08436
H          4.47636        2.04359       -0.02266
H         -0.37879       -3.16006       -0.08517
H         -3.75406       -2.97226        0.51434
H         -2.08317       -3.43073        0.51665
H         -4.52869       -0.89007        0.23405
H         -4.34510        2.66123       -0.49353
H         -5.35380        1.24322       -0.55869
H         -1.23570        2.43210        0.27836
