29
Coordinates from ORCA-job ./opt_b97-3c_parallel
N          5.13729       -0.34905        0.70038
C          4.02419       -0.19746        0.48870
C          2.61101       -0.02110        0.22721
C          2.21512        1.35907        0.05550
N          2.95482        2.29345       -0.62235
N          1.29993        1.96542        0.16848
C          0.30212        1.51621        0.31652
C         -0.36692        0.26410        0.07619
C          0.31119       -0.97579       -0.00947
C         -0.47416       -2.13478       -0.22445
C         -1.86601       -2.08161       -0.33751
C         -2.50247       -0.85533       -0.22425
N         -3.82711       -0.59510       -0.26925
C         -3.92301        0.51719       -0.11143
N         -5.15012        1.10880       -0.05744
C         -2.71398        1.29144        0.05644
C         -1.75549        0.26306       -0.03098
C          1.71615       -1.10777        0.14132
N          2.25687       -2.36857        0.23271
H          3.93168        2.10419       -0.81730
H          2.65340        3.26143       -0.62736
H         -0.10552        2.52073        0.28974
H         -0.01651       -3.11538       -0.31791
H         -2.44199       -2.98966       -0.50040
H         -5.98691        0.53625       -0.07511
H         -5.23789        2.08793        0.18932
H         -2.61079        2.35489        0.24451
H          3.22226       -2.45585        0.53306
H          1.63534       -3.14656        0.42174
