31
Coordinates from ORCA-job ./opt_b97-3c_parallel
N         -2.66951       -4.07056        0.19249
C         -2.36468       -2.97000        0.12990
C         -1.99664       -1.56670        0.06105
C         -0.62319       -1.37366       -0.06169
C          0.13933       -0.20391       -0.02622
C         -0.33556        1.13023        0.02048
C          0.64841        2.14634        0.17789
N          1.98204        1.95771        0.22514
C          2.36444        0.68526        0.09358
C          3.68511        0.18836        0.08033
C          4.91590        0.90991        0.18103
N          6.00669        1.23692        0.28194
C          3.35247       -1.21085       -0.07825
N          4.34667       -2.14231       -0.17563
N          2.26997       -1.52469       -0.12444
C          1.53898       -0.38702       -0.02890
C         -1.67969        1.56009       -0.10416
N         -1.85108        2.91335       -0.33918
C         -2.87276        0.79826       -0.03589
C         -4.12598        1.55083       -0.11841
N         -5.10165        2.14054       -0.19696
C         -3.01400       -0.59813        0.12033
N         -4.29737       -1.08384        0.29852
H         -0.05641       -2.30128       -0.12509
H          0.39232        3.19477        0.30823
H          5.31891       -1.86106       -0.09726
H          4.12836       -3.12819       -0.26182
H         -1.06612        3.43415       -0.71503
H         -2.77884        3.24042       -0.58984
H         -5.08531       -0.44449        0.32747
H         -4.46177       -2.08112        0.38492
