28
Coordinates from ORCA-job ./opt_b97-3c_parallel
N         -3.37095       -3.28753       -0.09278
C         -2.80851       -2.29418       -0.06765
C         -2.14514       -1.02474       -0.03821
C         -3.15995       -0.07824       -0.03037
N         -3.23336        1.26600        0.01474
C         -2.02090        1.90802        0.02585
N         -2.14662        3.00104        0.08075
N         -0.76999        1.62230       -0.02154
C         -0.11212        0.51293       -0.00225
C         -0.70158       -0.83476       -0.00614
N         -0.00844       -1.73276        0.00936
C          1.10071       -1.94783        0.04293
C          1.90525       -0.74052        0.04850
C          3.26389       -0.57867        0.08048
N          4.06918       -1.33153        0.11763
C          3.54356        0.78073        0.06517
C          2.30760        1.39868        0.02963
N          2.23345        2.50123        0.01279
C          1.26560        0.43756        0.02215
H         -4.26093       -0.11270       -0.04278
H         -1.46251        3.71072        0.34139
H         -3.04440        3.47935        0.01809
H          1.60374       -2.92689        0.06528
H          4.05100       -2.34439        0.22601
H          5.05053       -1.05789        0.13543
H          4.38897        1.17246       -0.50047
H          3.17270        2.89902        0.01241
H          1.63558        3.18619       -0.44352
