29
Coordinates from ORCA-job ./opt_b97-3c_parallel
N         -5.30109        2.66293       -0.00113
C         -4.31110        2.09183       -0.00087
C         -3.06994        1.35598       -0.00078
C         -1.90848        2.10315       -0.00049
C         -0.59223        1.67209       -0.00015
C         -0.02644        0.38394       -0.00013
C         -0.74910       -0.84819       -0.00012
C          0.00016       -2.05297       -0.00071
C          1.38334       -2.10250       -0.00135
N          2.04569       -3.29614       -0.00521
C          2.13708       -0.90218        0.00029
C          3.50581       -0.44356        0.00056
C          3.56398        0.93120       -0.00012
C          4.76991        1.71611       -0.00022
N          5.73619        2.32628       -0.00035
C          2.28310        1.42254       -0.00055
C          1.39568        0.34193       -0.00018
C         -2.16611       -0.99840       -0.00020
C         -2.77064       -2.31812       -0.00043
N         -3.26281       -3.34957       -0.00109
C         -3.16636       -0.02407       -0.00047
H         -2.03482        3.18514       -0.00047
H          0.07153        2.52346        0.00001
H         -0.47317       -3.02932       -0.00122
H          1.52800       -4.16808        0.00510
H          3.05952       -3.31516        0.00503
H          4.41864       -1.03446        0.00115
H          2.05921        2.48406       -0.00105
H         -4.19336       -0.39530       -0.00059
