27
Coordinates from ORCA-job ./opt_b97-3c_parallel
N          5.71909        0.19393        0.18085
C          4.59498        0.00106        0.10839
C          3.17498       -0.24353        0.03439
C          2.78191       -1.56849        0.05048
C          1.49986       -2.08482       -0.00298
C          0.25617       -1.44581       -0.04164
C         -0.80070       -2.37992       -0.03891
C         -2.13130       -1.99662       -0.03408
C         -2.39949       -0.64407       -0.02836
C         -3.68637       -0.03199        0.02249
N         -4.99973       -0.39130        0.08130
N         -2.95882        0.82518        0.01309
C         -2.09230        1.54218        0.00223
C         -1.40753        0.28390       -0.05045
C         -0.02101       -0.04681       -0.07334
C          0.96261        0.98148       -0.12973
C          0.59513        2.37310       -0.28943
N          0.33786        3.47969       -0.42137
C          2.35659        0.87154       -0.07084
H          3.57597       -2.31149        0.10907
H          1.49066       -3.17294        0.01344
H         -0.59716       -3.44877       -0.02855
H         -2.93215       -2.73157       -0.01856
H         -5.26449       -1.36165       -0.04447
H         -5.72120        0.31796        0.01852
H         -2.13631        2.25791        0.81494
H          2.90695        1.81408       -0.10809
