31
Coordinates from ORCA-job ./opt_b97-3c_parallel
N          4.09038        1.85158       -0.21042
C          3.01900        1.01227       -0.06873
C          3.32157       -0.33734        0.07109
C          2.45212       -1.41056        0.22316
N          3.03223       -2.64194        0.35814
C          1.06183       -1.38490        0.23916
C          0.18158       -0.30838        0.13342
C          0.48537        1.06265        0.01653
C          1.76396        1.61716       -0.07325
N         -0.50714        1.99151       -0.02149
C         -1.80733        1.64517        0.04328
N         -2.69604        2.68121        0.00244
C         -2.21582        0.31755        0.12974
C         -3.53982       -0.09042        0.17003
C         -3.77177       -1.50209        0.20508
C         -2.34754       -1.57169       -0.00644
N         -1.98511       -2.78884       -0.51150
C         -1.21016       -0.69967        0.15710
H          4.99757        1.44772       -0.41545
H          3.92047        2.80708       -0.50467
H          4.38196       -0.58709        0.06386
H          4.02856       -2.69234        0.53962
H          2.45526       -3.42028        0.65810
H          0.58970       -2.35911        0.35376
H          1.78562        2.70241       -0.17199
H         -2.34173        3.62383        0.12004
H         -3.66617        2.50148        0.23329
H         -4.35762        0.62538        0.14979
H         -4.53262       -2.01141       -0.37828
H         -2.70941       -3.41736       -0.83967
H         -1.05122       -2.89682       -0.89181
