26
Coordinates from ORCA-job ./opt_b97-3c_parallel
N         -5.52289       -0.38540       -0.12842
C         -4.39421       -0.21106       -0.06834
C         -2.97561        0.00703        0.02291
C         -2.56854        1.38935        0.05780
N         -1.49674        1.65774        0.01952
C         -0.22936        1.18993       -0.00642
N          0.80633        2.07164       -0.05517
C          2.07942        1.62013       -0.07109
N          3.06909        2.55708       -0.14140
C          2.34788        0.25849       -0.02522
C          3.55940       -0.40881       -0.01994
C          3.33654       -1.83863        0.03346
C          1.88929       -1.91695        0.05686
N          1.16355       -3.07247        0.12423
C          1.32469       -0.64574        0.01928
C         -0.00806       -0.21189        0.01827
N         -1.03857       -1.09049        0.03155
C         -2.14157       -1.16893        0.02795
H         -3.15192        2.26087        0.33012
H          4.03214        2.27675        0.00395
H          2.82464        3.53647       -0.04576
H          4.49610        0.14185       -0.04963
H          4.06563       -2.64235        0.05059
H          0.15959       -3.02524       -0.01441
H          1.63219       -3.95999       -0.01961
H         -2.41436       -2.19153       -0.20431
