31
Coordinates from ORCA-job ./opt_b97-3c_parallel
N          5.94783        1.22294       -0.00946
C          4.80732        1.17808        0.04461
C          3.55385        0.49380        0.00747
C          2.25558        1.14721       -0.00346
C          1.18458        0.25879       -0.01503
C          1.73670       -0.98274       -0.01183
C          0.92590       -2.09574       -0.01275
N         -0.41142       -1.94720       -0.00645
C         -1.02788       -0.71853       -0.00453
C         -2.45011       -0.76728        0.01999
C         -3.06129       -2.09569        0.03668
N         -3.55628       -3.12694        0.04657
C         -3.37531        0.30066        0.03476
N         -4.72401        0.02693        0.08543
C         -3.12139        1.66581        0.00185
C         -1.91146        2.33476       -0.04155
N         -1.98480        3.70085       -0.07696
C         -0.63690        1.78947       -0.04504
C         -0.21504        0.45503       -0.01979
C          3.11572       -0.88904       -0.00062
N          3.90802       -2.00285        0.01080
H          2.15014        2.22713        0.01182
H          1.31451       -3.11215       -0.00916
H         -5.03798       -0.93213       -0.02418
H         -5.38934        0.77450       -0.07701
H         -4.00123        2.30974        0.01050
H         -2.87777        4.14930        0.09723
H         -1.14044        4.24370        0.06693
H          0.13788        2.54561       -0.07656
H          3.49313       -2.90369       -0.19896
H          4.90641       -1.88958       -0.13018
