32
Coordinates from ORCA-job ./opt_b97-3c_parallel
N          5.55687        0.88421        0.39093
C          4.45113        0.61814        0.28453
C          3.05916        0.26459        0.14136
C          2.72523       -1.09066        0.12433
C          1.45434       -1.68458        0.02296
C          1.51831       -3.13314        0.02279
N          1.58735       -4.27435        0.02796
C          0.17832       -1.06216       -0.03737
N         -0.90804       -1.89116       -0.09501
C         -2.16614       -1.40855       -0.10319
N         -3.16065       -2.33712       -0.20741
C         -2.39568       -0.03808       -0.04478
C         -3.57239        0.69742        0.01162
N         -4.81155        0.12999        0.12408
C         -3.30288        2.12036        0.02941
C         -1.85182        2.11368        0.01848
N         -1.09449        3.25155        0.04666
C         -1.33388        0.82127       -0.02156
C         -0.01250        0.34300       -0.02284
N          1.01301        1.20551       -0.00450
C          2.09847        1.32062        0.00063
N          2.40572        2.62192       -0.28193
H          3.56956       -1.77472        0.20535
H         -4.06379       -2.02019       -0.54172
H         -2.89013       -3.28753       -0.43534
H         -4.85659       -0.84585        0.39834
H         -5.58148        0.72463        0.41107
H         -3.94730        2.89338        0.43439
H         -0.09798        3.16349        0.21518
H         -1.54426        4.13395        0.26416
H          3.37161        2.88607       -0.44380
H          1.67783        3.26479       -0.57343
