24
Coordinates from ORCA-job ./opt_b97-3c_parallel
N         -1.00183        2.29299       -0.74082
C         -1.17147        1.16787        0.01963
N         -2.24381        1.30836        0.24469
C         -3.02756        0.53247        0.32923
C         -3.10246       -0.87611        0.04794
C         -1.98694       -1.69733       -0.12852
C         -0.64594       -1.27991       -0.09971
C          0.33407       -2.28580       -0.18065
C          1.69770       -1.98626       -0.11157
C          2.08355       -0.66150        0.04894
N          3.33469       -0.16358        0.15130
C          3.22243        0.95327        0.27396
C          1.88227        1.49300        0.26849
C          1.13372        0.30936        0.11041
C         -0.23678        0.06681        0.01867
H         -0.08928        2.49888       -1.13061
H         -1.67864        3.04550       -0.68450
H         -3.81707        1.19716        0.65915
H         -4.10216       -1.30295        0.03252
H         -2.18716       -2.75776       -0.26684
H          0.03683       -3.32678       -0.28624
H          2.44202       -2.77651       -0.17044
H          4.16980        1.46465        0.39560
H          1.57255        2.52346        0.40792
