31
Coordinates from ORCA-job ./opt_b97-3c_parallel
N          0.17404       -4.57866        0.55569
C          0.40349       -3.46307        0.44928
C          0.69747       -2.05283        0.33434
C          2.04239       -1.71901        0.39030
C          2.44965       -0.35775        0.30227
C          3.55272        0.48644       -0.07805
N          4.75778       -0.15578       -0.10670
C          3.44265        1.88534       -0.39357
C          2.01293        1.81989       -0.39903
C          1.44535        0.62842        0.03866
C          0.06158        0.31910        0.11230
C         -0.91257        1.35397        0.15913
C         -0.63449        2.71167        0.58581
N         -0.42933        3.78274        0.93079
C         -2.34831        1.13371        0.17294
N         -3.32658        2.10032        0.15714
N         -3.08547        0.33562       -0.01829
C         -2.80043       -0.72244       -0.13558
N         -3.91780       -1.24448       -0.72462
C         -1.63478       -1.51342        0.14035
C         -0.30157       -1.06103        0.19468
H          2.80873       -2.48321        0.50352
H          5.60506        0.39732       -0.17158
H          4.82468       -1.08685        0.28953
H          4.06620        2.42972       -1.09556
H          1.45210        2.64592       -0.82368
H         -4.30611        1.83686        0.16920
H         -3.08712        3.06445        0.36115
H         -4.75368       -0.67745       -0.81335
H         -4.00094       -2.24607       -0.85808
H         -1.93259       -2.55462        0.23567
