29
Coordinates from ORCA-job ./opt_b97-3c_parallel
N         -5.46337       -0.71903        0.55533
C         -4.72235       -0.24947       -0.17899
C         -3.32485       -0.01918       -0.37960
C         -2.77056        1.30271       -0.40505
C         -1.39223        1.40425       -0.33958
C         -0.75257        2.63025       -0.22498
C          0.62541        2.66929       -0.04405
C          1.40986        1.51085        0.00233
N          2.71728        1.68402        0.21433
C          3.68664        1.20193        0.34050
C          3.88336       -0.21247        0.30389
C          2.93363       -1.18983       -0.00186
N          3.45146       -2.46159       -0.03511
C          1.54924       -0.98610       -0.24496
C          0.78841       -2.16822       -0.61314
N          0.20447       -3.10261       -0.91916
C          0.83138        0.23875       -0.18329
C         -0.61499        0.19878       -0.32433
C         -1.94776       -0.27608       -0.03034
N         -1.94509       -1.32154        0.85443
H         -3.39125        2.19641       -0.38983
H         -1.32366        3.55591       -0.23545
H          1.10345        3.63952        0.07555
H          4.20783        1.94133        0.93658
H          4.92216       -0.47282        0.49623
H          4.45659       -2.58960       -0.00002
H          2.87921       -3.21836       -0.39572
H         -2.80620       -1.84317        0.97893
H         -1.07342       -1.81880        1.00174
