31
Coordinates from ORCA-job ./opt_b97-3c_parallel
N         -3.53802       -2.95432        0.18414
C         -3.00350       -1.94339        0.14526
C         -2.34129       -0.64095        0.09048
C         -3.21561        0.46133        0.20348
N         -4.55961        0.24699        0.40782
C         -2.90973        1.80963        0.10345
C         -1.69594        2.41367       -0.14757
C         -0.43380        1.84640       -0.25847
C          0.58180        2.83659       -0.55116
N          1.36448        3.63445       -0.79347
C         -0.06839        0.49054       -0.12685
C         -0.92345       -0.64385       -0.03333
N         -0.36158       -1.89228       -0.07360
C          0.96012       -2.12066       -0.15323
C          1.87967       -1.08926       -0.14884
C          3.25312       -1.27791       -0.12038
N          3.83325       -2.51752       -0.12859
C          4.04411       -0.09462        0.01290
C          2.74346        0.47176        0.28420
N          2.98051        1.53407        1.11456
C          1.36864        0.24398       -0.10808
H         -5.18424        1.03106        0.55894
H         -4.90639       -0.69748        0.54425
H         -3.74276        2.50509        0.19755
H         -1.75436        3.49751       -0.24589
H          1.26071       -3.16625       -0.16861
H          4.84125       -2.58737       -0.21535
H          3.27129       -3.32459       -0.37459
H          4.92026        0.00491        0.64836
H          2.25180        2.23368        1.20704
H          3.93808        1.84919        1.22309
