29
Coordinates from ORCA-job ./opt_b97-3c_parallel
N          2.38136        3.43001        0.01698
C          1.66420        2.54038        0.00922
C          0.74735        1.42713        0.01092
C         -0.62013        1.68975       -0.04147
C         -1.57858        0.65998       -0.02176
C         -2.95316        1.00227       -0.09029
N         -3.33669        2.30556       -0.26723
C         -4.01199        0.09378        0.00385
C         -3.86776       -1.31771        0.23621
N         -3.07152       -2.07995        0.19986
C         -2.01250       -1.79308        0.09447
C         -1.10633       -0.67032        0.06326
C          0.27088       -0.92664        0.09902
C          0.81901       -2.25135        0.16366
C          2.11929       -1.63186        0.09355
N          2.98670       -2.68520       -0.01476
C          2.58281       -0.26397        0.09454
C          3.91541        0.18638       -0.16622
N          4.98270        0.43625        0.15672
C          1.19229        0.10551        0.06817
H         -0.92428        2.73244       -0.08742
H         -4.30562        2.49544       -0.49985
H         -2.64169        2.97854       -0.56946
H         -5.04633        0.42406       -0.05996
H         -4.61928       -2.01940        0.57918
H         -1.85038       -2.81151       -0.24082
H          0.47891       -3.09423       -0.43217
H          3.98281       -2.50434        0.05942
H          2.65359       -3.62550        0.16616
