30
Coordinates from ORCA-job ./opt_b97-3c_parallel
N         -5.53799        2.53081       -0.02606
C         -4.61959        1.85047       -0.02500
C         -3.47482        0.97876       -0.02349
C         -3.51610       -0.39784       -0.04491
C         -2.18741       -0.96557       -0.03524
C         -1.52050       -2.22295       -0.03086
N         -2.25767       -3.37177       -0.04547
C         -0.13511       -2.26400       -0.01429
C          0.66209       -1.10569        0.00134
C          2.03226       -1.40238        0.01508
C          3.16109       -0.58572        0.02958
N          4.34994       -1.27364        0.04170
C          3.19754        0.81336        0.03384
C          4.48180        1.48539        0.04150
N          5.49425        2.01609        0.03464
C          2.10394        1.67014        0.02985
C          0.74364        1.39218        0.01879
C          0.05153        0.17165        0.00422
C         -1.36562        0.23042       -0.00931
C         -2.16244        1.37548       -0.00151
H         -4.46934       -0.92075       -0.06651
H         -3.25610       -3.31019        0.11968
H         -1.79450       -4.25362        0.14452
H          0.33086       -3.24749       -0.01504
H          2.27411       -2.46472        0.01427
H          5.21421       -0.76175       -0.10364
H          4.34530       -2.27048       -0.14294
H          2.33636        2.73454        0.03618
H          0.16359        2.30423        0.01914
H         -1.84962        2.41434        0.01859
