33
Coordinates from ORCA-job ./opt_b97-3c_parallel
N         -5.63919        0.85616       -0.80784
C         -4.56204        0.57485       -0.54762
C         -3.19265        0.23765       -0.21511
C         -3.04175       -1.09595        0.32103
N         -3.86559       -1.64630        1.26510
N         -2.25883       -1.86616        0.21141
C         -1.28567       -1.64986       -0.26399
C         -0.33650       -0.57334       -0.11858
C         -0.74321        0.78716       -0.15541
C         -2.11330        1.12954       -0.39215
N         -2.44813        2.36416       -0.89719
C          0.26857        1.78339        0.01036
N         -0.04603        3.11246        0.17200
C          1.63368        1.44368        0.11555
C          2.63953        2.47522        0.27371
N          3.41789        3.30306        0.40114
C          1.99023        0.09500        0.08520
C          3.24146       -0.52715        0.14432
C          4.55178        0.06885        0.21754
N          5.59940        0.52432        0.26894
C          3.03659       -1.89538        0.08815
C          1.67362       -2.12707       -0.00153
C          1.10545       -3.44797       -0.08901
N          0.66585       -4.50097       -0.16847
C          1.02414       -0.88870       -0.00911
H         -4.75984       -1.20629        1.45460
H         -3.77414       -2.63160        1.48602
H         -1.32543       -2.42414       -1.02309
H         -1.70384        2.94010       -1.27715
H         -3.38121        2.49361       -1.27472
H          0.67412        3.74105        0.51260
H         -1.01146        3.35307        0.37260
H          3.81367       -2.65685        0.10201
