27
Coordinates from ORCA-job ./opt_b97-3c_parallel
N          3.22819        2.41206       -0.28687
C          2.87239        1.33666       -0.14503
C          2.47451       -0.03151        0.00497
C          3.34708       -1.07891       -0.11969
C          2.68952       -2.23568       -0.12394
C          1.36468       -1.97608        0.00823
C          0.25410       -2.88580        0.00092
C         -1.01984       -2.24546        0.16522
C         -1.30310       -0.83469        0.14364
C         -2.71384       -0.50222        0.07817
N         -3.71483       -0.96499        0.04788
N         -3.19719        0.69948       -0.28482
C         -2.47540        1.82118       -0.28283
N         -1.35900        2.13299        0.29099
C         -0.24975        1.47905        0.35630
N          0.11574        2.50809        0.52161
C         -0.15277        0.05595        0.16974
C          1.15256       -0.57256        0.11279
H          4.42642       -0.97981       -0.21082
H          3.13879       -3.22346       -0.21656
H          0.41354       -3.95286       -0.11329
H         -1.71340       -3.00854       -0.18509
H         -4.59193       -0.59877        0.41277
H         -3.30008       -1.51817        0.79630
H         -3.01576        2.63367       -0.79146
H          0.61446        1.80289        1.06299
H          0.21450        3.37991        1.03700
