31
Coordinates from ORCA-job ./opt_b97-3c_parallel
N         -3.96719        2.51914        0.28470
C         -2.95635        2.07503       -0.00898
C         -1.67650        1.40082       -0.00798
C         -0.38829        1.92458       -0.00951
N         -0.40286        3.03422       -0.00232
C          0.77564        1.04487       -0.02517
C          2.03389        1.75583       -0.09948
C          3.35452        1.21530       -0.13769
C          3.74681       -0.09915       -0.05284
N          4.84555       -0.21909       -0.07536
C          2.98152       -1.30831        0.06677
C          1.59399       -1.42851        0.08099
N          1.46055       -2.52864        0.16374
C          0.57301       -0.39000        0.01733
C         -0.81672       -0.82110        0.00723
N         -1.29600       -2.10618       -0.02025
C         -2.67068       -1.95310       -0.05829
N         -3.28684       -2.86599       -0.11510
N         -3.01206       -0.69415       -0.04234
C         -1.93658        0.04113       -0.01935
H         -1.08753        3.78775       -0.05066
H          0.35831        3.37369        0.58419
H          2.01757        2.83929       -0.16192
H          4.11235        1.99403       -0.22545
H          5.42560       -1.03316        0.12053
H          5.48562        0.55628       -0.23959
H          3.62196       -2.19979        0.12919
H          2.26253       -3.12520        0.36603
H          0.65696       -3.15178        0.17010
H         -4.29743       -2.83222       -0.24603
H         -3.01448       -3.84072       -0.23819
