29
Coordinates from ORCA-job ./opt_b97-3c_parallel
N          3.76625       -3.08230       -0.03373
C          3.11038       -2.14619       -0.02117
C          2.26789       -0.97427       -0.01230
C          0.88115       -1.15875        0.00892
C         -0.09735       -0.14836       -0.00297
C          0.16452        1.23996       -0.03423
C          1.51746        1.73939       -0.01653
N          2.56719        1.39648        0.00486
C          2.87433        0.33711       -0.02859
N          4.22334        0.56879       -0.05590
C         -0.90147        2.16302       -0.07493
N         -0.66694        3.51069       -0.12807
C         -2.22848        1.72255       -0.06560
C         -2.48312        0.35853       -0.01756
N         -3.68434       -0.25904        0.00442
C         -3.46587       -1.36373        0.04452
N         -4.46837       -2.28619        0.09547
C         -2.08233       -1.77763        0.05007
C         -1.44316       -0.52014        0.00896
H          0.53719       -2.19009        0.02502
H          1.89603        2.64205        0.45122
H          4.58101        1.50780        0.07945
H          4.87069       -0.20801        0.02208
H          0.26908        3.83009       -0.35198
H         -1.44146        4.12804       -0.34528
H         -3.05291        2.43176       -0.09339
H         -5.42544       -1.97667        0.22278
H         -4.25205       -3.25991        0.27570
H         -1.68360       -2.78568        0.09500
