32
Coordinates from ORCA-job ./opt_b97-3c_parallel
N         -4.22162        1.73468        0.44398
C         -3.05658        1.05783        0.20478
C         -3.13115       -0.32131        0.20624
C         -2.13027       -1.26605        0.00170
N         -2.66122       -2.53309       -0.03801
C         -0.72570       -1.07800       -0.09101
C          0.03611       -2.27297       -0.09297
C          1.41728       -2.29167       -0.12024
C          2.09558       -1.09637       -0.10830
C          3.52609       -1.04800       -0.04948
C          3.50352        0.38689        0.04628
N          4.68377        1.04739        0.23098
C          2.31724        1.20034        0.06482
C          1.40594        0.09926       -0.11897
C         -0.02064        0.16491       -0.17443
C         -0.63121        1.43941       -0.34235
N          0.09111        2.50427       -0.81800
C         -1.95367        1.82059       -0.12568
H         -4.17163        2.73278        0.61716
H         -5.00038        1.22569        0.84754
H         -4.13312       -0.71895        0.37066
H         -2.08618       -3.28169       -0.40608
H         -3.66534       -2.62561       -0.14304
H         -0.42006       -3.25639       -0.04488
H          1.95567       -3.23667       -0.10428
H          4.16406       -1.70533        0.53274
H          5.51271        0.50791        0.45437
H          4.65614        2.01977        0.51733
H          2.16673        2.04111        0.73552
H          0.98583        2.31186       -1.25514
H         -0.41594        3.32219       -1.13648
H         -2.16004        2.88682       -0.22212
