25
Coordinates from ORCA-job ./opt_b97-3c_parallel
N          1.42226       -3.50040        0.11679
C          1.69621       -2.39086        0.07931
C          2.05895       -0.99835        0.02547
C          3.36434       -0.53110        0.00100
C          3.46237        0.91689       -0.05325
C          2.04648        1.21012       -0.04500
N          1.57959        2.47277       -0.07657
C          0.23339        2.61526       -0.07162
C         -0.67631        1.54534       -0.04012
C         -2.04070        1.87643       -0.05106
C         -3.10749        0.97688       -0.01671
C         -2.95109       -0.45094        0.05799
N         -4.01188       -1.29646        0.21062
N         -2.10706       -1.16119        0.03141
C         -1.02803       -0.92383        0.02303
C         -0.16463        0.23051       -0.00535
C          1.22935        0.10086       -0.00635
H          4.19909       -1.22801        0.02040
H          4.25043        1.52072        0.38545
H         -0.11514        3.64618       -0.09632
H         -2.30415        2.93087       -0.09179
H         -4.12733        1.35359       -0.03850
H         -3.87363       -2.29961        0.16377
H         -4.95936       -0.93667        0.18441
H         -0.93505       -1.85860       -0.51918
