30
Coordinates from ORCA-job ./opt_b97-3c_parallel
N          4.69731       -0.97641       -0.27227
C          3.48202       -0.36199       -0.15642
C          3.47262        1.05363       -0.41917
C          2.04807        1.03576       -0.27627
N          1.36764        2.18079       -0.46744
C          0.02738        2.10899       -0.35774
C         -0.66579        0.93285       -0.05345
C         -2.10246        1.02447        0.06681
N         -2.74731        2.04526        0.71144
N         -2.95645        0.36460       -0.17205
C         -2.91825       -0.73900       -0.21064
N         -3.97653       -1.11422       -0.98789
C         -2.00007       -1.68942        0.35976
C         -0.62001       -1.48808        0.48316
N          0.05480       -2.57129        0.97806
C          0.04478       -0.27404        0.15500
C          1.45242       -0.18101        0.02488
C          2.38983       -1.27040        0.07953
H          4.72676       -1.98830       -0.33239
H          5.46844       -0.45415       -0.67386
H          4.13273        1.79188        0.02500
H         -0.50093        3.04736       -0.51475
H         -2.23209        2.87138        0.99349
H         -3.75865        2.10290        0.66968
H         -4.20930       -2.09523       -1.09225
H         -4.65620       -0.42243       -1.28287
H         -2.45628       -2.63378        0.64950
H          0.99459       -2.42893        1.33128
H         -0.48383       -3.33392        1.37350
H          2.25905       -2.22424       -0.42222
