28
Coordinates from ORCA-job ./opt_b97-3c_parallel
N          3.23911       -3.31046        0.04055
C          2.45197       -2.48093        0.05223
C          1.45394       -1.43950        0.05387
C          0.10633       -1.78224       -0.00957
C         -0.88471       -0.79831       -0.00531
C         -2.25162       -1.24649       -0.06680
N         -3.29259       -0.87932       -0.05412
C         -3.55969        0.18974       -0.02165
N         -4.92065        0.08109        0.01739
C         -2.88280        1.45841        0.02367
C         -1.49461        1.60718        0.06770
C         -0.54014        0.56840        0.05908
C          0.82879        0.89406        0.11781
C          1.34487        2.23330        0.19137
C          2.69736        1.73411        0.17346
N          3.62938        2.72776        0.07356
C          3.16189        0.37005        0.19694
C          1.80439       -0.09005        0.11888
H         -0.17854       -2.83183       -0.06054
H         -2.63892       -2.25582        0.01882
H         -5.49902        0.91060       -0.05261
H         -5.36030       -0.82407       -0.10539
H         -3.51732        2.34139        0.03169
H         -1.14979        2.63479        0.11504
H          0.97886        3.08580       -0.37166
H          3.33937        3.68970        0.21250
H          4.60880        2.49857        0.20532
H          4.00492       -0.01558       -0.36751
