31
Coordinates from ORCA-job ./opt_b97-3c_parallel
N          5.11663        0.21183        0.98709
C          4.09236       -0.20058        0.69161
C          2.79834       -0.72962        0.33308
C          2.76174       -2.07297        0.02024
C          1.66234       -2.81884       -0.34815
C          0.30958       -2.48193       -0.36143
N         -0.41777       -3.53987       -0.84660
C         -0.32271       -1.23831       -0.05581
C         -1.74568       -1.21092        0.13943
N         -2.47874       -2.34290        0.41512
C         -2.46674       -0.00880        0.18291
C         -3.90523        0.03388        0.34971
N         -5.03923        0.07822        0.49005
C         -1.76869        1.17156        0.03431
C         -2.28163        2.45817       -0.03874
C         -1.21067        3.31188       -0.21043
C         -0.04772        2.55438       -0.22334
C          1.22109        3.15978       -0.54806
N          2.21991        3.65315       -0.80335
C         -0.39150        1.19830       -0.04340
C          0.37455        0.00736        0.02669
C          1.74816        0.17721        0.26730
H          3.70812       -2.61144        0.03921
H          1.91084       -3.84463       -0.61971
H         -1.37630       -3.37026       -1.13418
H          0.07503       -4.31449       -1.27683
H         -3.42402       -2.23521        0.76729
H         -1.97415       -3.18789        0.66297
H         -3.32965        2.74733       -0.00501
H         -1.27393        4.38852       -0.35173
H          2.06784        1.17107        0.53963
