30
Coordinates from ORCA-job ./opt_b97-3c_parallel
N          2.63974       -3.26917       -0.45538
C          2.52644       -2.14688       -0.63760
C          2.14476       -0.92277        0.00228
C          3.19162        0.07722        0.02205
N          4.55105       -0.09254        0.06447
C          3.11475        1.51632       -0.05558
C          1.68987        1.39594       -0.03641
N          0.94738        2.50973       -0.05071
C         -0.38807        2.34494       -0.04920
C         -1.06289        1.10236       -0.02722
C         -2.47746        1.15404       -0.08210
N         -3.10204        2.36858       -0.23058
C         -3.39863        0.10745       -0.03085
C         -3.19335       -1.25811        0.09621
N         -4.31028       -2.04584        0.13829
C         -1.97801       -1.91331        0.18013
C         -0.69760       -1.38628        0.14768
C         -0.25076       -0.06049        0.04158
C          1.15288        0.12501        0.01101
H          4.92093       -1.02656       -0.07939
H          5.14882        0.69247       -0.16964
H          3.67793        2.23313        0.53623
H         -0.91370        3.29623       -0.05775
H         -4.08775        2.37026       -0.46908
H         -2.55016        3.15920       -0.54206
H         -4.44678        0.40071       -0.09409
H         -4.21113       -3.01931        0.40456
H         -5.21455       -1.60544        0.26677
H         -2.02248       -2.99708        0.27529
H          0.04720       -2.16603        0.23855
