35
Coordinates from ORCA-job ./opt_b97-3c_parallel
N         -5.89234        0.64947        0.88114
C         -4.93246        0.36356        0.32802
C         -3.52553        0.14574        0.17303
C         -3.10665       -1.20411       -0.09295
N         -3.72561       -2.41850       -0.20487
C         -1.69093       -1.07406       -0.29537
C         -0.65357       -2.01143       -0.58334
C          0.69144       -1.73811       -0.37634
C          1.55912       -2.82311       -0.78760
N          2.22896       -3.68201       -1.13290
C          1.13940       -0.42489       -0.06742
C          2.49300       -0.19606        0.31210
C          3.16951       -1.25619        1.04970
N          3.70512       -2.07071        1.64745
C          3.24546        0.99296        0.19243
N          4.57817        0.98778        0.53669
C          2.83559        2.22257       -0.30704
C          1.55543        2.65477       -0.60361
N          1.43191        3.96232       -0.98599
C          0.37586        1.94078       -0.46565
C          0.15843        0.58664       -0.19922
C         -1.26453        0.27647       -0.08723
C         -2.41097        1.04114        0.33254
N         -2.62271        2.29086        0.84607
H         -3.16114       -3.26029       -0.22481
H         -4.69563       -2.49753        0.08277
H         -0.98365       -2.99419       -0.91420
H          4.95684        0.18451        1.02816
H          5.07350        1.86978        0.60578
H          3.61473        2.97801       -0.41175
H          0.54015        4.29123       -1.33936
H          2.26658        4.48824       -1.22237
H         -0.51473        2.53432       -0.65731
H         -3.54011        2.52717        1.20988
H         -1.82761        2.85655        1.12183
