30
Coordinates from ORCA-job ./opt_b97-3c_parallel
N         -5.23086       -0.83674       -0.22141
C         -4.14987       -0.77721        0.14585
C         -2.94057       -0.01355        0.15392
C         -2.52132        1.36652        0.12918
N         -3.50729        2.30560       -0.00116
C         -1.23822        2.02016        0.14779
C         -0.63226        0.71533        0.13623
C         -1.54025       -0.32714        0.12883
N         -1.17009       -1.61527        0.10346
C          0.14654       -1.88382        0.06618
N          0.38889       -3.22946        0.05660
C          1.16450       -0.89611        0.05427
C          2.48873       -1.36292       -0.02704
C          3.69625       -0.67884       -0.05326
C          3.93447        0.68377        0.02297
N          5.24259        1.07873       -0.00995
C          2.98429        1.68622        0.13331
C          1.59987        1.58454        0.16576
C          0.75813        0.46079        0.11519
H         -3.25188        3.25799       -0.23679
H         -4.44411        1.99109       -0.23399
H         -0.94727        2.84782       -0.49219
H         -0.38788       -3.85144        0.25138
H          1.32088       -3.55472        0.28423
H          2.64319       -2.43455       -0.09560
H          4.57661       -1.31383       -0.13675
H          5.45356        2.06299       -0.13179
H          5.95046        0.40222       -0.27406
H          3.36808        2.70316        0.19417
H          1.13279        2.55941        0.25280
