26
Coordinates from ORCA-job ./opt_b97-3c_parallel
N          4.22883       -0.95552       -0.20955
C          3.00829       -0.35424       -0.08745
C          3.04022        1.08480       -0.11825
C          1.60942        1.07952       -0.06115
N          0.96332        2.25959       -0.07475
C         -0.38114        2.20795       -0.04465
C         -1.10814        1.01673        0.00881
C         -2.54168        1.14518        0.04855
N         -3.47103        0.58782       -0.15412
C         -3.45347       -0.51242       -0.22290
C         -2.53895       -1.58685        0.05266
C         -1.14844       -1.46021        0.15228
N         -0.51235       -2.64577        0.40062
C         -0.43923       -0.22967        0.04880
C          0.97533       -0.15477       -0.00768
C          1.89023       -1.26158       -0.08880
H          5.02805       -0.38364       -0.46068
H          4.26361       -1.94449       -0.43133
H          3.68186        1.72324        0.48077
H         -0.88452        3.17280       -0.05940
H         -3.13852        2.04939       -0.00389
H         -4.49253       -0.57704       -0.52545
H         -3.02867       -2.55314        0.15394
H         -1.07765       -3.44718        0.65785
H          0.43747       -2.61311        0.75303
H          1.78120       -2.10487       -0.76407
