31
Coordinates from ORCA-job ./opt_b97-3c_parallel
N         -5.33614       -1.49055        0.20146
C         -4.23857       -1.17219        0.16898
C         -2.98567       -0.49968        0.02071
C         -2.73356        0.93091       -0.04062
N         -3.65038        1.94680       -0.05344
C         -1.37697        1.19611       -0.07053
C         -0.70587        2.40745       -0.12536
N          0.64455        2.44236       -0.12683
C          1.36475        1.28469       -0.07611
C          2.75971        1.46342       -0.04477
C          3.79249        0.51704        0.05005
N          5.07038        0.99985        0.11594
C          3.64828       -0.87007        0.09194
C          2.40214       -1.56821        0.00150
N          2.31561       -2.91760       -0.17781
N          1.40079       -1.13246       -0.00393
C          0.72066        0.02344       -0.03587
C         -0.68263        0.02562       -0.03016
C         -1.61931       -1.00179        0.02041
N         -1.28309       -2.32726        0.07351
H         -4.63229        1.71870       -0.16859
H         -3.34413        2.88746       -0.27537
H         -1.22364        3.36383       -0.15983
H          3.09073        2.50079       -0.07676
H          5.81619        0.36669        0.38272
H          5.20721        1.99118        0.28060
H          4.52213       -1.51231        0.17972
H          3.15768       -3.45331       -0.35708
H          1.42690       -3.33260       -0.43290
H         -2.00104       -3.00309        0.31068
H         -0.31514       -2.56832        0.25929
