35
Coordinates from ORCA-job ./opt_b97-3c_parallel
N         -5.66822       -0.69670        0.64892
C         -4.70842       -0.29442        0.17396
C         -3.31654        0.04114        0.16571
C         -3.00295        1.40609       -0.15914
N         -3.67227        2.59883       -0.15662
C         -1.60014        1.37426       -0.46749
C         -0.66409        2.43261       -0.66247
C          0.68034        2.27689       -0.38831
C          1.27995        1.02166       -0.14742
C          2.68239        1.00652        0.09168
C          3.42701        2.25439       -0.02992
N          4.02287        3.22415       -0.14187
C          3.45743       -0.08414        0.53350
N          4.74010        0.13014        0.98404
C          3.11494       -1.42759        0.53075
C          2.00998       -2.04412       -0.03310
N          2.12920       -3.41252       -0.09805
C          0.82056       -1.43588       -0.46378
C         -0.10335       -2.30125       -1.18419
N         -0.81338       -2.98225       -1.76615
C          0.41652       -0.10011       -0.24228
C         -1.03952        0.09267       -0.15645
C         -2.10515       -0.69338        0.41558
N         -2.27215       -1.88380        1.06816
H         -4.68167        2.59106       -0.05544
H         -3.23782        3.40661       -0.58841
H         -1.06146        3.42624       -0.85474
H          1.24242        3.20481       -0.40729
H          5.35283       -0.66645        1.11061
H          5.16577        1.03955        0.83381
H          3.88311       -2.10421        0.90712
H          2.97967       -3.86765        0.21472
H          1.38678       -3.96974       -0.50828
H         -1.52884       -2.56955        0.99158
H         -3.21826       -2.24207        1.15023
