26
Coordinates from ORCA-job ./opt_b97-3c_parallel
N          3.88315        1.43154       -0.20732
C          2.88240        0.98008       -0.10032
N          2.01499        2.03026        0.15375
C          0.68919        1.63928        0.24870
C         -0.08875        0.52337        0.09907
C          0.32207       -0.90013       -0.05363
C          1.74868       -1.11409        0.06590
N          2.16421       -1.90356        0.71668
N          2.73050       -0.30702       -0.20478
C         -0.72445       -1.85489       -0.35676
N         -0.93132       -2.91659       -0.59077
N         -2.06462       -1.51185       -0.48831
C         -2.42981       -0.17421       -0.30920
C         -3.73300        0.20190       -0.43030
C         -3.42954        1.48600       -0.09317
N         -2.33044        1.42044       -0.03399
C         -1.41748        0.80645       -0.01669
H          4.77047        0.96486       -0.39783
H          4.08658        2.43097       -0.24946
H          0.45436        2.69722        0.44735
H          3.16308       -2.11010        0.75865
H          1.72927       -2.52976        1.39432
H         -0.46495       -3.48025       -1.30390
H         -1.65739       -3.52595       -0.20754
H         -4.53108       -0.33397        0.08016
H         -4.27545        2.18545        0.00107
