27
Coordinates from ORCA-job ./opt_b97-3c_parallel
N         -5.00241       -0.77196        0.06732
C         -4.25928        0.09510        0.01941
C         -2.86379        0.39733        0.02339
C         -2.41312        1.76837       -0.00668
N         -1.30591        1.96521       -0.00542
C         -0.66628        0.77196        0.02217
C         -1.59764       -0.22513        0.04054
C         -1.28497       -1.56992        0.07447
C          0.06200       -1.91272        0.07284
N          0.38717       -3.24225        0.10557
C          1.05486       -0.91175        0.03889
C          2.42794       -1.35168       -0.01330
N          3.49093       -1.06426        0.04071
C          3.73336        0.00512        0.15432
C          3.08841        1.28683        0.08884
C          1.70564        1.49897        0.04097
N          1.36824        2.82549        0.02446
C          0.71792        0.47090        0.03328
H         -2.99215        2.68349       -0.03375
H         -2.06711       -2.32598        0.09521
H          1.34517       -3.49924        0.31798
H         -0.34106       -3.91380        0.32285
H          2.83621       -2.20942       -0.53910
H          4.79385       -0.20812        0.23162
H          3.78944        2.11885        0.10238
H          0.40242        3.08494       -0.14671
H          2.09055        3.52046       -0.12581
