31
Coordinates from ORCA-job ./opt_b97-3c_parallel
N         -5.44879       -1.01880       -1.57070
C         -4.49179       -0.60725       -1.10290
C         -3.30848       -0.04516       -0.53136
C         -3.07686        1.36316       -0.61045
N         -1.95758        1.94914       -0.13561
C         -0.71870        1.48135        0.15949
N          0.16857        2.49732        0.51192
C          1.51539        2.21581        0.58441
N          2.06031        3.12802        0.89122
C          2.01739        0.97795        0.07180
C          3.30119        0.36136       -0.11368
N          4.15878        1.05605       -0.05924
C          3.04117       -1.02494       -0.31059
C          4.08166       -1.98110       -0.51996
N          4.93822       -2.71893       -0.68960
C          1.74110       -1.41288       -0.36769
C          1.18313       -0.18581       -0.11370
C         -0.25466        0.10150       -0.05537
C         -1.22640       -0.97671       -0.13049
C         -1.01305       -2.38917       -0.25114
N         -0.83175       -3.51542       -0.30916
C         -2.53338       -0.86285        0.22486
N         -3.02171       -1.05454        1.46546
H         -3.86771        2.00520       -1.02872
H          3.01785        2.76839        0.84857
H          2.15060        4.10851        1.16292
H          4.72296        1.55722       -0.74799
H          4.72415        0.24835        0.21138
H          1.41823       -2.01216       -1.21654
H         -4.03385       -1.05092        1.60391
H         -2.67453       -1.83887        2.01914
