31
Coordinates from ORCA-job ./opt_b97-3c_parallel
N          5.48298        0.61631       -0.04640
C          4.47834        0.07370        0.00669
C          3.20512       -0.59736        0.06534
C          3.01134       -1.96350        0.18406
C          1.64230       -2.20444        0.18896
C          0.97631       -0.97914        0.07594
C          1.94949       -0.01191        0.00942
C          1.62288        1.31424       -0.14287
C          0.27657        1.66855       -0.16032
N          0.08399        2.98980       -0.47199
C         -0.77791        0.70668        0.01253
C         -2.11539        1.16717        0.20325
N         -2.36217        2.46969        0.55946
C         -3.31735        0.45789        0.15307
C         -3.56209       -0.88463       -0.08006
N         -4.87137       -1.26419       -0.18841
C         -2.61998       -1.89099       -0.14656
C         -1.24478       -1.79227       -0.03131
C         -0.40079       -0.67274        0.02762
H          3.79298       -2.71599        0.25830
H          1.20200       -3.19253        0.28127
H          2.40350        2.06253       -0.26575
H         -0.82260        3.25365       -0.84480
H          0.88605        3.53569       -0.76572
H         -3.27299        2.70085        0.93977
H         -1.57303        3.03295        0.85943
H         -4.22057        1.05317        0.29299
H         -5.07576       -2.18709       -0.55523
H         -5.57115       -0.54177       -0.31884
H         -3.00179       -2.90289       -0.27044
H         -0.78142       -2.76985       -0.06060
