23
Coordinates from ORCA-job ./opt_b97-3c_parallel
N          1.96755       -2.38518       -0.17490
C          2.05681       -1.05821        0.00112
C          3.20244       -0.41391       -0.16253
C          3.00600        0.86759        0.00606
C          1.73348        1.01881        0.30153
C          1.12436        2.23464        0.31507
N         -0.19230        2.24702        0.02532
C         -0.91180        1.10434       -0.08415
N         -2.24328        1.33757       -0.40770
C         -3.09712        0.25518       -0.36244
N         -3.43761       -1.05788       -0.13645
C         -2.33727       -1.77362        0.27432
C         -1.00772       -1.55546        0.46404
C         -0.37386       -0.23247        0.19302
C          1.06235       -0.17024        0.37459
H          1.15053       -2.79555       -0.62288
H          2.78263       -2.91275       -0.48640
H          4.14954       -0.86829       -0.44883
H          3.74361        1.65448       -0.13891
H          1.52106        3.26072        0.36081
H         -4.14483        0.46155       -0.63219
H         -2.71307       -2.79575        0.43821
H         -0.39291       -2.38332        0.80607
