33
Coordinates from ORCA-job ./opt_b97-3c_parallel
N         -5.39366       -2.33287       -0.87246
C         -4.46919       -1.69616       -0.66087
C         -3.32238       -0.87367       -0.42950
C         -2.03529       -1.28967       -0.42273
C         -1.35202       -0.14738       -0.05361
C         -2.12656        1.00003       -0.05410
C         -1.51300        2.19381        0.17789
N         -1.63946        3.27257        0.36548
N         -0.19346        2.33516        0.34141
C          0.61962        1.26137        0.31716
N          1.84675        1.55642        0.55145
C          2.88801        1.15954       -0.08970
N          3.25113        2.19088       -0.26528
C          3.28988       -0.21674       -0.16813
C          4.66588       -0.38756       -0.57648
N          5.76178       -0.48936       -0.88190
C          2.40746       -1.25181        0.20717
N          2.94748       -2.22384        0.30598
C          0.92651       -1.20853        0.32475
C          0.32194       -2.48146        0.65033
N          0.00516       -2.71616        1.72462
C          0.09857       -0.07930        0.17549
C         -3.38756        0.51846       -0.22077
N         -4.22101        1.24469       -0.17897
H         -1.67159       -1.92530       -1.22813
H         -2.63050        3.05409        0.46703
H         -1.50445        4.19012        0.78916
H          3.20202        3.12965       -0.65996
H          4.21421        1.88104       -0.39573
H          3.94094       -2.44775        0.23758
H          2.51918       -3.01703        0.78414
H         -4.67409        2.11592       -0.45310
H         -4.95715        0.53900       -0.16459
