25
Coordinates from ORCA-job ./opt_b97-3c_parallel
N          0.06396       -3.26374       -0.19148
C          0.34657       -1.93213       -0.04940
N          1.66991       -1.71082       -0.04166
C          2.07727       -0.43649        0.02292
N          3.33889        0.00285        0.07072
C          2.78401        0.97784        0.08983
N          1.95480        1.73280        0.09098
C          1.20932        0.61635        0.02640
C         -0.20576        0.44344       -0.01062
C         -1.05367        1.58585       -0.08877
N         -0.53537        2.84750       -0.23728
C         -2.44878        1.65323       -0.08167
C         -3.39011        0.65394        0.06571
C         -3.16820       -0.69934        0.19067
C         -1.96460       -1.37985        0.13986
C         -0.64069       -0.91467        0.01894
H         -0.83189       -3.51012       -0.59696
H          0.84161       -3.88398       -0.38888
H          3.66016        1.61070        0.14081
H         -1.15032        3.64690       -0.15378
H          0.45981        2.99218       -0.10922
H         -2.88799        2.64484       -0.18144
H         -4.42973        0.97295        0.08270
H         -4.05693       -1.31405        0.31642
H         -2.12211       -2.44872        0.24224
