30
Coordinates from ORCA-job ./opt_b97-3c_parallel
N          0.78910        3.98461       -0.12569
C          0.42952        2.89949       -0.06797
C         -0.03557        1.52823       -0.01201
C         -1.41837        1.32864       -0.04995
N         -2.33776        2.33716       -0.15772
C         -1.99561        0.02371        0.02662
C         -3.18278       -0.79937        0.07451
N         -4.33605       -0.10485        0.31714
C         -3.13052       -2.21743       -0.17177
C         -1.70293       -2.30281       -0.10908
C         -1.07447       -1.07054       -0.02747
C          0.31973       -0.88294       -0.00393
N          1.11630       -1.96222       -0.04365
C          2.12982       -2.37540       -0.06530
C          3.31155       -1.57791        0.05365
C          3.34758       -0.18650        0.13215
N          4.58426        0.38852        0.23724
C          2.24981        0.69038        0.10874
C          0.85730        0.42553        0.03620
H         -3.28549        2.08923       -0.42064
H         -2.00599        3.26446       -0.40246
H         -5.20349       -0.61062        0.46324
H         -4.27298        0.84981        0.65700
H         -3.84913       -2.95892        0.16101
H         -1.14230       -3.23382       -0.15190
H          2.05260       -3.42689       -0.31268
H          4.23054       -2.16008        0.07295
H          5.41178       -0.17681        0.08434
H          4.66738        1.39678        0.15963
H          2.55922        1.72902        0.16745
