32
Coordinates from ORCA-job ./opt_b97-3c_parallel
N          1.29865        4.34487        0.36630
C          0.82605        3.30673        0.29957
C          0.22441        1.99035        0.19821
C         -1.17600        1.91145        0.14730
N         -1.97711        3.02453        0.19335
C         -1.75163        0.65497        0.00842
C         -3.13458        0.32465       -0.12528
N         -4.40683        0.81640       -0.08694
N         -2.60612       -0.66762       -0.22997
C         -1.90831       -1.55026       -0.31511
N         -2.41423       -2.76910       -0.66128
C         -1.00784       -0.47390       -0.03541
C          0.39548       -0.46112        0.07287
C          1.12155       -1.67114        0.14393
C          0.60487       -2.99179        0.41512
N          0.21819       -4.04138        0.65166
C          2.54815       -1.79390        0.29107
N          3.44154       -1.18017        0.08286
C          3.38604       -0.08709       -0.03966
N          4.58231        0.10300       -0.67114
C          2.42349        0.96711        0.13450
C          1.02205        0.81730        0.13716
H         -2.95309        2.92902       -0.06488
H         -1.54630        3.93890        0.10498
H         -5.18864        0.17194       -0.05842
H         -4.56309        1.76213        0.24332
H         -3.41490       -2.92698       -0.67292
H         -1.79381       -3.56821       -0.74348
H          3.17521       -2.66934        0.15476
H          4.90339        1.04185       -0.87907
H          5.25327       -0.65567       -0.72344
H          2.93590        1.92335        0.20242
