25
Coordinates from ORCA-job ./opt_b97-3c_parallel
N         -3.31853        2.65820        0.11664
C         -2.89758        1.59739        0.05850
C         -2.39041        0.25078       -0.01344
C         -3.22874       -0.85189       -0.04604
C         -2.52980       -2.11800       -0.10917
C         -1.18470       -1.59059       -0.09153
N         -0.12674       -2.41921       -0.12653
C          1.09120       -1.84081       -0.10287
N          2.13778       -2.71812       -0.14518
C          1.29114       -0.44903       -0.04768
C          2.64544        0.04617        0.00872
N          3.25604        0.96465        0.01786
C          2.81049        1.96890       -0.07507
C          1.49869        2.55392       -0.02860
C          0.30546        1.82805       -0.01051
C          0.17660        0.42297       -0.03014
C         -1.08466       -0.21117       -0.04285
H         -4.30873       -0.72571       -0.02183
H         -2.86301       -3.05158        0.33235
H          1.93544       -3.68906       -0.35665
H          3.05428       -2.36190       -0.38973
H          3.50002       -0.39641        0.50951
H          3.76891        2.47324       -0.12647
H          1.47683        3.64079       -0.02266
H         -0.57762        2.44667        0.00602
