29
Coordinates from ORCA-job ./opt_b97-3c_parallel
N         -5.96039        0.66483       -0.02332
C         -4.87956        0.29086       -0.01249
C         -3.51144       -0.16733       -0.00117
C         -3.33652       -1.54265        0.00721
C         -2.14418       -2.24421        0.02039
C         -0.84100       -1.76450        0.02398
C         -0.33852       -0.45664        0.01334
C         -1.12683        0.72264        0.00586
C         -2.52604        0.81884        0.00054
C         -0.48598        1.97161        0.00192
C          0.89951        2.09912       -0.00112
C          1.50109        3.40752       -0.00508
N          1.96447        4.45328       -0.00076
C          1.66659        0.93905       -0.00144
C          3.09512        0.88586       -0.01944
C          3.27700       -0.54931        0.00048
N          4.56874       -1.01767        0.02055
C          2.05976       -1.35702        0.00899
C          2.35595       -2.75489       -0.04214
N          2.26812       -3.89703       -0.05930
C          1.07178       -0.30118        0.00909
H         -4.23566       -2.15605        0.00441
H         -2.24326       -3.32615        0.02782
H         -0.13694       -2.58000        0.03672
H         -2.92701        1.83375       -0.00579
H         -1.07629        2.88668       -0.00065
H          3.82661        1.68778        0.02130
H          5.34791       -0.39738       -0.16233
H          4.71522       -2.01732       -0.10562
