29
Coordinates from ORCA-job ./opt_b97-3c_parallel
N          5.27881       -0.05976        0.23971
C          4.13804       -0.06257        0.17362
C          2.68654       -0.07731        0.10022
C          2.11576        1.13910        0.42557
C          0.80192        1.57518        0.30689
C          0.68727        2.92823        0.82135
N          0.61761        3.98628        1.24662
C         -0.35596        0.83709       -0.05145
C         -1.54418        1.55798       -0.40088
C         -1.55714        2.87339       -1.00830
N         -1.57698        3.90258       -1.50544
C         -2.80220        0.97252       -0.33320
C         -2.88117       -0.33315        0.09033
C         -4.06685       -1.09961        0.29886
N         -3.21264       -1.80401        0.49552
C         -2.25696       -2.38304        0.61796
C         -1.76722       -1.09010        0.22574
C         -0.44687       -0.58892        0.02211
C          0.62738       -1.50965       -0.17538
C          0.27488       -2.88154       -0.52093
N          0.02821       -3.96254       -0.80215
C          2.02161       -1.26176       -0.24207
N          2.85329       -2.31109       -0.59667
H          2.83331        1.89840        0.75057
H         -3.70432        1.52753       -0.58470
H         -5.10301       -0.79461        0.21252
H         -1.78826       -3.15299        1.22002
H          2.46068       -3.21315       -0.84523
H          3.85783       -2.17556       -0.64216
