27
Coordinates from ORCA-job ./opt_b97-3c_parallel
N         -5.25023       -0.71288       -0.23547
C         -4.15079       -0.41481       -0.14510
C         -2.75474       -0.05509       -0.03488
C         -2.61135        1.31491        0.37399
N         -1.82120        2.08263        0.29152
C         -0.77369        1.85548        0.03427
N         -0.53302        3.09482       -0.49675
C          0.14509        0.73535        0.00140
C         -0.31702       -0.60258       -0.10626
C          0.64921       -1.63357       -0.11035
C          2.01471       -1.36792       -0.01226
C          2.95995       -2.45541        0.02890
N          3.69882       -3.32663        0.07612
C          2.42964       -0.04186        0.06529
N          3.67248        0.44493        0.14719
C          3.04637        1.38618        0.15618
N          2.19363        2.12818        0.16887
C          1.52964        0.96949        0.07556
C         -1.68857       -0.95709       -0.20927
N         -2.02665       -2.25770       -0.49554
H         -3.31281        1.93748        0.91826
H          0.42722        3.35486       -0.69592
H         -1.17758        3.85030       -0.29020
H          0.35403       -2.67856       -0.16050
H          3.87695        2.04643       -0.06224
H         -2.99217       -2.45942       -0.73883
H         -1.31414       -2.87325       -0.87034
