25
Coordinates from ORCA-job ./opt_b97-3c_parallel
N         -3.89754        2.54453        0.00440
C         -3.24074        1.60903        0.00390
C         -2.37763        0.46539        0.00159
C         -3.19594       -0.65492        0.00215
N         -3.00916       -1.98742        0.00080
C         -1.69852       -2.38201       -0.00131
N         -0.50877       -1.89756       -0.00267
C         -0.09771       -0.67583       -0.00093
C         -0.92546        0.54047        0.00118
N         -0.36185        1.52585        0.00132
C          0.68801        1.93549        0.00070
C          1.66352        0.94755       -0.00052
C          3.03063        0.96684       -0.00143
N          3.84466        1.71664       -0.00139
N          3.47516       -0.36624       -0.00336
C          2.41495       -1.21932       -0.00370
N          2.60196       -2.30973       -0.00512
C          1.25479       -0.39506       -0.00167
H         -4.27965       -0.85137        0.00295
H         -1.93926       -3.45706       -0.00142
H          0.66573        3.03666        0.00082
H          4.86363        1.64900       -0.00173
H          3.64292        2.71810       -0.00090
H          1.66971       -2.73079       -0.00497
H          3.25479       -3.09487       -0.00635
