27
Coordinates from ORCA-job ./opt_b97-3c_parallel
N          5.80817        1.65373        0.03967
C          4.75712        1.20865        0.06856
C          3.45967        0.61328        0.08037
C          3.37501       -0.75469        0.25360
N          2.35108       -1.63920        0.24287
C          1.02105       -1.24371        0.06189
N          0.19332       -2.35911       -0.02817
C         -1.15638       -2.14335       -0.21541
N         -1.65518       -3.12190       -0.33970
C         -1.69944       -0.81741       -0.18439
C         -2.94061       -0.13889        0.07452
N         -3.75393       -0.84731        0.31682
C         -2.68311        1.25334       -0.08172
C         -3.69772        2.24456        0.09151
N         -4.52979        3.01244        0.24452
C         -1.41492        1.62452       -0.39969
C         -0.87850        0.36966       -0.24140
C          0.55307        0.13283       -0.08804
N          1.22832        1.00498       -0.08992
C          2.26309        1.37857       -0.09789
H          4.27019       -1.37877        0.40461
H         -1.61245       -4.12875       -0.50717
H         -2.64345       -2.87313       -0.42455
H         -4.26088       -1.39907        1.00940
H         -4.36820       -0.06410        0.08890
H         -0.96655        2.50513        0.05862
H          2.41701        2.45927       -0.24943
