29
Coordinates from ORCA-job ./opt_b97-3c_parallel
N         -4.37478        1.64755        0.72801
C         -3.40650        1.07930        0.51198
C         -2.17213        0.37412        0.23073
C         -2.36368       -1.02056       -0.09863
N         -3.38358       -1.50251       -0.87619
N         -1.80411       -1.96476        0.01291
C         -0.73110       -1.94354        0.27324
C          0.42495       -1.10074        0.08398
C          1.67932       -1.72549       -0.05525
N          1.81241       -3.08561       -0.05153
N          2.83947       -1.05310       -0.19285
C          2.75265        0.28702       -0.20222
C          3.93113        1.10440       -0.38423
C          3.26504        2.39055       -0.40822
C          1.89466        2.31020       -0.23036
C          1.56267        0.97955       -0.08104
C          0.32645        0.31408        0.08920
C         -0.90697        0.99830        0.27881
N         -0.90701        2.33729        0.57664
H         -4.18257       -0.90808       -1.06860
H         -3.51252       -2.50457       -0.96204
H         -0.79658       -2.89977        0.78006
H          0.98443       -3.65474       -0.18471
H          2.70814       -3.47833       -0.31855
H          4.91357        0.89827        0.02826
H          3.73818        3.35579       -0.57066
H          1.23225        3.16833       -0.25945
H         -0.04246        2.75252        0.90441
H         -1.77531        2.75797        0.89081
