29
Coordinates from ORCA-job ./opt_b97-3c_parallel
N         -3.34248        2.92375        0.07084
C         -2.46262        2.19496        0.05001
C         -1.33504        1.28770        0.02395
C         -0.01215        1.75491        0.04955
N          0.22719        3.10606        0.11421
C          1.07096        0.84940        0.01493
C          2.40366        1.39980       -0.02867
N          3.47023        1.13618        0.07770
C          3.79948        0.11822        0.34533
C          3.27274       -1.18945        0.06729
C          1.91655       -1.49594       -0.08816
N          1.67825       -2.81750       -0.34236
C          0.85720       -0.55197       -0.02701
C         -0.49374       -0.95068       -0.01340
C         -1.13541       -2.21476        0.03716
C         -2.52347       -1.82959        0.05657
N         -3.50132       -2.77065        0.18259
N         -2.74107       -0.72949        0.02034
C         -1.55155       -0.08686        0.00416
H          1.12142        3.41535        0.47702
H         -0.56791        3.72271        0.24787
H          2.75017        2.28352       -0.55500
H          4.83109        0.39672        0.53037
H          4.03599       -1.96304        0.01735
H          0.78947       -3.06414       -0.76177
H          2.47256       -3.40646       -0.56905
H         -0.74750       -3.21684        0.17697
H         -3.25612       -3.72946        0.39989
H         -4.46169       -2.47733        0.32548
