28
Coordinates from ORCA-job ./opt_b97-3c_parallel
N         -4.56552        1.15348       -0.06595
C         -3.41582        0.41262       -0.03784
C         -3.58279       -0.96547       -0.02813
C         -2.60571       -1.94718       -0.01200
C         -1.22524       -1.80625       -0.01112
C         -0.44322       -0.64604       -0.01159
C         -0.89293        0.69905       -0.00548
C         -2.22256        1.13054       -0.02119
N         -0.00486        1.73653        0.00859
C          1.32401        1.50877        0.00504
N          2.14650        2.59712        0.02454
C          1.80919        0.20972       -0.01762
C          3.15238       -0.26755       -0.05630
N          4.46546        0.09027       -0.14243
N          2.52507       -1.20921       -0.04279
C          1.73999       -2.02443       -0.05563
C          0.95191       -0.83182       -0.02085
H         -5.45435        0.69197        0.08922
H         -4.50883        2.15571        0.08101
H         -4.60748       -1.33266       -0.03684
H         -2.97266       -2.97131       -0.00606
H         -0.69978       -2.75641       -0.00898
H         -2.35029        2.21349       -0.02571
H          1.73754        3.49971        0.23642
H          3.12367        2.45269        0.25240
H          4.70013        1.05204       -0.36091
H          5.16114       -0.62024       -0.33826
H          1.49797       -3.02302        0.28604
