29
Coordinates from ORCA-job ./opt_b97-3c_parallel
N         -4.45511       -0.60278        0.02169
C         -3.12046       -0.30115        0.00770
C         -2.79246        1.03134       -0.12179
C         -1.54183        1.62381       -0.10063
C         -0.24550        1.08192       -0.00081
C          0.79514        2.05914        0.04463
N          0.57066        3.40854        0.14457
C          2.13481        1.70334        0.02456
C          2.42591        0.36569       -0.03014
C          3.67617       -0.28340       -0.07474
C          3.27809       -1.66780       -0.09666
N          2.16000       -1.78865       -0.06680
C          1.48483       -0.61177       -0.01713
C          0.09104       -0.31249        0.02688
C         -0.84180       -1.38857        0.11189
N         -0.41391       -2.68687        0.23354
C         -2.23821       -1.36066        0.12840
H         -4.74310       -1.57341       -0.01974
H         -5.12646        0.11380       -0.23042
H         -3.62568        1.72343       -0.22654
H         -1.64219        2.69871       -0.20079
H         -0.33925        3.71501        0.47254
H          1.36185        4.00779        0.35262
H          2.92857        2.44706        0.04795
H          4.68220        0.12145       -0.09684
H          3.89112       -2.56031       -0.13645
H         -1.08674       -3.43812        0.13367
H          0.56425       -2.89881        0.07425
H         -2.72855       -2.32995        0.23109
