28
Coordinates from ORCA-job ./opt_b97-3c_parallel
N         -1.80070       -3.71381        0.48533
C         -1.09599       -2.82893        0.32211
C         -0.17018       -1.73592        0.12932
C          1.16277       -2.15593        0.08328
C          2.15985       -1.20656       -0.03032
C          3.57101       -1.39043       -0.08775
N          3.42602       -0.26816       -0.11689
C          3.10576        0.81677       -0.14247
N          4.05375        1.79056       -0.24564
C          1.87012        0.10600       -0.05176
C          0.55986        0.59158        0.01818
C          0.43555        1.98859        0.04321
C         -0.78202        2.72399        0.22336
N         -1.84251        2.52450       -0.00033
C         -2.25584        1.50451       -0.05725
N         -3.53353        2.01405       -0.04111
C         -1.86877        0.10391        0.00059
C         -3.04639       -0.71381       -0.22071
N         -3.98869       -1.33541       -0.40662
C         -0.51812       -0.34778        0.05890
H          1.42387       -3.21131        0.14029
H          4.12953       -2.27604       -0.36537
H          5.01711        1.53056       -0.42282
H          3.77264        2.74262       -0.45104
H          1.29208        2.65707        0.01510
H         -0.94220        3.62742        0.80136
H         -4.31863        1.38827       -0.18577
H         -3.68658        3.00465       -0.19713
