28
Coordinates from ORCA-job ./opt_b97-3c_parallel
N         -3.85309        2.35253       -0.56484
C         -2.99115        1.61745       -0.40562
C         -1.89635        0.69502       -0.18077
C         -2.32026       -0.63248        0.20883
N         -3.45793       -0.92127        0.91631
N         -1.91363       -1.65709        0.13579
C         -0.85441       -1.86756       -0.09691
N         -1.01089       -3.00390       -0.84489
C          0.41193       -1.19896        0.06656
C          1.52928       -2.00877        0.33209
N          2.79217       -1.54338        0.43519
C          2.89918       -0.21879        0.25469
C          4.07034        0.55946        0.30837
C          3.53053        1.87665        0.07091
N          2.41321        1.91591       -0.07194
C          1.89067        0.66747        0.01090
C          0.55726        0.20529       -0.07805
C         -0.54353        1.08319       -0.29235
N         -0.31617        2.40061       -0.61136
H         -4.16639       -0.20380        1.02582
H         -3.75290       -1.88742        1.00438
H         -0.19729       -3.50412       -1.18498
H         -1.90946       -3.47266       -0.86996
H          1.42308       -3.08513        0.45520
H          5.10516        0.27615        0.47221
H          4.04230        2.82931        0.01185
H         -1.09125        3.05497       -0.60117
H          0.62796        2.76688       -0.55436
