32
Coordinates from ORCA-job ./opt_b97-3c_parallel
N          4.63010        1.94855       -0.36462
C          3.59527        1.48142       -0.23846
C          2.27486        0.93013       -0.07761
C          1.04248        1.70772       -0.05332
N          1.17921        2.80190       -0.18743
C         -0.20603        1.12357        0.11527
C         -1.33570        1.89423        0.29794
N         -1.71472        2.90086        0.56944
N         -2.72090        1.93241        0.22029
C         -3.30008        0.70209       -0.05064
N         -4.38987        0.70401       -0.21354
N         -2.73611       -0.46644       -0.04282
C         -1.56644       -1.00576        0.12165
N         -2.22016       -1.89644        0.12493
C         -0.32933       -0.25531        0.14183
C          0.82625       -1.01475        0.14096
C          1.05988       -2.37524        0.15372
C          0.41180       -3.65011        0.20388
N         -0.14785       -4.64539        0.24682
C          2.42356       -2.55373        0.06555
C          3.06387       -1.39088        0.00084
C          2.10896       -0.43333        0.04470
H          2.01641        3.08948        0.32043
H          1.07516        3.46064       -0.95827
H         -2.20799        3.74743        0.85477
H         -0.72395        3.09984        0.70329
H         -4.75298        1.53307       -0.68182
H         -4.87103       -0.09513       -0.62408
H         -2.90833       -2.62961        0.29558
H         -1.35268       -2.22870        0.54387
H          2.92888       -3.51940        0.03700
H          4.14052       -1.25009       -0.08845
