26
Coordinates from ORCA-job ./opt_b97-3c_parallel
N         -5.17183       -0.47721        0.61786
C         -4.09301       -0.15371        0.42659
C         -2.73377        0.20914        0.16856
C         -2.57126        1.53505       -0.19567
C         -1.34609        2.29971       -0.31558
C         -0.02793        1.87139       -0.13941
N          0.57148        2.80270       -0.15179
C          0.38970        0.49006       -0.03932
C         -0.43530       -0.58601       -0.18845
C         -1.69780       -0.76849        0.27554
C          0.17133       -1.81064       -0.36784
N          0.14991       -2.89454       -0.58842
N          1.48377       -2.09698       -0.24760
C          2.30488       -1.06690        0.02460
N          3.66937       -1.04701        0.14806
C          3.99114        0.29905        0.32422
N          2.86233        1.11721        0.29255
C          1.81374        0.24925        0.11257
H         -3.47106        2.13635       -0.31069
H         -1.56159        3.35644       -0.50082
H          1.57583        2.93864       -0.05020
H          0.16712        3.73812       -0.18610
H         -2.02650       -1.74682        0.62214
H         -0.76617       -2.86750       -1.03510
H          0.33941       -3.87580       -0.38764
H          4.95714        0.81013        0.46226
