26
Coordinates from ORCA-job ./opt_b97-3c_parallel
N          2.77099       -1.80717        0.64440
C          2.06795       -0.87104       -0.06413
N          2.92217       -0.24715       -0.37937
C          2.86510        0.84550       -0.53269
C          1.96284        1.86536       -0.07004
C          0.59416        1.67895        0.15431
N         -0.06859        2.81337        0.53010
C         -0.07337        0.43071        0.03884
C          0.62596       -0.79588       -0.07633
C         -0.08015       -2.00396       -0.17424
N         -1.42651       -2.09782       -0.15217
C         -2.09480       -0.93634       -0.04041
C         -3.53987       -0.90503       -0.04306
C         -3.69948        0.53508       -0.01065
C         -2.50064        1.22523        0.04440
C         -1.47928        0.29897        0.04155
H          3.78128       -1.84605        0.56814
H          2.28887       -2.59134        1.06862
H          3.80622        0.96493       -1.05627
H          2.42777        2.84179        0.05068
H         -0.97668        2.70829        0.96757
H          0.48233        3.62366        0.79128
H          0.44571       -2.95229       -0.26327
H         -4.19147       -1.61590       -0.54074
H         -4.64019        1.07882       -0.04303
H         -2.42295        2.30676        0.04005
