30
Coordinates from ORCA-job ./opt_b97-3c_parallel
N         -1.03063       -4.29659        0.18161
C         -0.50751       -3.28129        0.14874
C          0.16793       -2.00306        0.11412
C          1.56348       -2.04068        0.15324
C          2.30335       -0.86611        0.10880
C          3.68504       -0.85384        0.15253
C          4.29753        0.43814        0.08694
C          2.96595        0.93767       -0.14512
N          2.91716        2.22329       -0.60689
C          1.63793        0.39402        0.00230
C          0.20005        0.43216        0.05326
C         -0.35133        1.71603        0.11429
C         -1.74999        2.01691        0.25235
N         -2.18438        3.22621        0.71490
N         -2.67862        1.45127        0.06070
C         -2.78611        0.36406       -0.10071
N         -4.06254        0.29627       -0.58253
C         -1.94171       -0.79541        0.02125
C         -0.53525       -0.77738        0.06236
H          2.07891       -2.99764        0.21641
H          4.24718       -1.78172        0.22996
H          5.18240        0.67511       -0.49486
H          2.03751        2.58283       -0.96162
H          3.77487        2.67401       -0.90549
H          0.28863        2.59493        0.11860
H         -3.16998        3.45848        0.67256
H         -1.51974        3.97606        0.86923
H         -4.50135       -0.60570       -0.72879
H         -4.65475        1.11856       -0.55243
H         -2.52741       -1.71110        0.04124
