30
Coordinates from ORCA-job ./opt_b97-3c_parallel
N         -2.74066        4.16884       -0.07559
C         -2.43575        3.06736       -0.07682
C         -2.04318        1.68227       -0.09649
C         -3.10020        0.74890       -0.38235
N         -3.21342       -0.34000       -0.22302
C         -2.41879       -1.06622        0.02368
N         -3.11702       -1.73211        0.99611
C         -0.97913       -1.15006       -0.10741
C         -0.37138       -2.41264       -0.27792
N         -1.11599       -3.55306       -0.41826
C          1.01850       -2.53378       -0.31276
C          1.80117       -1.39677       -0.17252
N          3.14866       -1.34970       -0.17586
C          3.34486       -0.25179       -0.05207
N          4.67598        0.05548       -0.00653
C          2.29219        0.74061        0.05569
C          2.61369        2.12657        0.22066
N          2.60734        3.13745        0.75477
C          1.20829       -0.17279       -0.03348
C         -0.18103        0.01587       -0.02590
C         -0.69907        1.32336        0.04204
H         -4.16375        0.93912       -0.47254
H         -2.68869       -2.53153        1.45020
H         -4.12761       -1.65690        1.02762
H         -0.65837       -4.39757       -0.74303
H         -2.11349       -3.45913       -0.58028
H          1.48883       -3.50666       -0.43965
H          5.35814       -0.69230        0.05300
H          4.96835        0.99024        0.25651
H         -0.00670        2.14826        0.16588
