28
Coordinates from ORCA-job ./opt_b97-3c_parallel
N          5.04458       -1.14708        0.45245
C          4.07398       -0.56527        0.28933
C          2.84158        0.15537        0.06681
C          3.06161        1.40563       -0.61482
N          2.55959        2.38023       -0.47501
C          1.59192        2.55658        0.02668
C          0.37157        1.78880        0.05750
C         -0.81719        2.52892        0.03728
C         -2.05399        1.90035        0.10109
C         -2.07161        0.51475        0.12089
C         -3.17783       -0.31688        0.04916
C         -4.55765        0.08419       -0.02907
N         -5.65270        0.40322       -0.10301
C         -2.71120       -1.61210       -0.07367
C         -1.32272       -1.57937       -0.05017
C         -0.55116       -2.73531       -0.43379
N          0.04299       -3.65827       -0.75256
C         -0.90920       -0.24579        0.12350
C          0.36545        0.37339        0.17239
C          1.56914       -0.33974        0.40761
N          1.53718       -1.50006        1.13563
H          3.93018        1.72406       -1.18008
H          1.71822        3.63256        0.07670
H         -0.77918        3.61477       -0.01779
H         -2.97407        2.48005        0.07944
H         -3.32514       -2.49313       -0.24769
H          2.39289       -2.01945        1.30259
H          0.65249       -1.88629        1.44471
