32
Coordinates from ORCA-job ./opt_b97-3c_parallel
N         -5.39737        0.20060       -0.23555
C         -4.25789        0.18300       -0.14260
C         -2.81150        0.17420       -0.03793
C         -2.30430       -1.16047        0.07937
N         -2.74118       -2.24632       -0.62926
N         -1.25095       -1.40187        0.17697
C          0.02072       -0.99305        0.23330
C          1.01563       -1.98872        0.30392
C          0.68865       -3.39754        0.32282
N          0.44185       -4.51343        0.34327
C          2.35937       -1.65440        0.37640
C          2.74329       -0.28161        0.39396
C          3.78076        0.56512       -0.13183
N          5.03582        0.02782       -0.13480
C          3.69788        1.87585       -0.71403
C          2.27303        1.78675       -0.60883
C          1.73658        0.67593        0.03761
C          0.35109        0.38321        0.17031
C         -0.62579        1.43162        0.24741
C         -0.14762        2.74394        0.65959
N          0.21098        3.77545        0.99938
C         -2.04724        1.34543        0.12672
N         -2.78023        2.51560        0.15901
H         -2.26497       -3.13375       -0.50816
H         -3.71167       -2.27976       -0.92261
H          3.12608       -2.42434        0.43469
H          5.82392        0.62830       -0.35112
H          5.20877       -0.81559        0.40075
H          4.30262        2.72849       -0.42153
H          1.67101        2.53148       -1.12218
H         -2.32518        3.37043        0.46276
H         -3.78955        2.45760        0.24533
