27
Coordinates from ORCA-job ./opt_b97-3c_parallel
N         -0.01432        4.03909        0.36281
C          0.51619        3.10556       -0.02611
C          0.46743        1.67095       -0.02953
C          1.78867        1.24971        0.00782
C          1.98868       -0.16841       -0.00016
C          3.18962       -0.82136        0.02021
N          4.25051       -0.52444        0.05215
C          2.82318       -2.14264       -0.01079
C          1.49579       -2.27471       -0.03185
C          0.94436       -1.02848       -0.02245
C         -0.37861       -0.63408       -0.03472
C         -1.43069       -1.63963        0.00274
C         -2.80295       -1.41362       -0.00170
N         -3.63498       -2.13925        0.05297
N         -3.62097       -0.34581       -0.08714
C         -2.99615        0.87609       -0.14879
N         -1.79582        1.32465       -0.09916
C         -0.62016        0.79810       -0.05762
H          2.65656        1.90611        0.03330
H          4.59373        0.39987        0.30761
H          5.04719       -1.15649        0.11314
H          3.51911       -2.97993       -0.03457
H          0.97205       -3.22478       -0.08114
H         -1.09669       -2.66991        0.05658
H         -4.65308       -2.12664        0.11468
H         -3.34886       -3.05737        0.39064
H         -3.49958        1.85125       -0.24422
