32
Coordinates from ORCA-job ./opt_b97-3c_parallel
N         -5.40596        1.23090        0.20827
C         -4.35575        0.78876        0.13028
C         -3.00229        0.25421        0.05742
C         -3.03825       -1.12236       -0.16811
N         -3.90964       -1.80009       -0.33562
C         -1.95497       -2.09274       -0.17900
C         -0.59920       -1.83438       -0.03991
N         -0.06979       -2.81417       -0.05424
C          0.12418       -0.57888        0.03128
C         -0.43220        0.76427        0.09161
C          0.51881        1.88607        0.10460
C          1.87910        1.65179        0.08063
C          2.63308        2.87336        0.08095
N          3.37133        3.22785       -0.71658
C          2.34240        0.36109        0.07362
N          3.70237        0.11348        0.09805
C          3.96295       -1.23914        0.09900
N          4.81090       -1.94027        0.12998
N          2.67253       -1.26118        0.04975
C          1.50271       -0.71305        0.04870
C         -1.84149        1.13176        0.18645
N         -2.10502        2.19907        0.35544
H         -4.75109       -1.25022       -0.50576
H         -4.11479       -2.73741       -0.67766
H         -2.23495       -3.15465       -0.30030
H         -0.57193       -3.61822       -0.43034
H          0.51039       -3.17606        0.70021
H          0.15445        2.90978        0.12220
H          5.74640       -1.53604        0.11411
H          4.92479       -2.92384        0.37201
H         -1.72659        2.68189        1.16893
H         -3.05172        2.55838        0.23104
