34
Coordinates from ORCA-job ./opt_b97-3c_parallel
N          5.05119       -2.33410        0.52342
C          4.05209       -1.79207        0.40158
C          2.77583       -1.11964        0.24147
C          1.70317       -1.87634        0.69328
C          0.33897       -1.65061        0.55232
C         -0.45523       -2.77934        0.99181
N         -1.06531       -3.67696        1.35196
C         -0.30755       -0.46681        0.15286
C          0.30758        0.79739        0.03296
C         -0.49696        1.89206        0.44785
C          0.03745        3.15957        0.90063
N          0.45020        4.15616        1.27818
C         -1.84653        1.72028        0.72311
C         -2.56104        0.55986        0.29766
C         -3.91677        0.37540       -0.13041
N         -4.94193        1.27564       -0.10276
C         -3.90600       -0.95407       -0.66807
C         -2.57691       -1.47847       -0.81128
N         -2.52475       -2.62172       -1.55624
C         -1.74928       -0.55938       -0.07536
C          1.62610        1.01333       -0.44423
C          1.83935        2.23660       -1.20911
N          2.01247        3.18480       -1.82388
C          2.73026        0.13142       -0.39472
N          3.92477        0.57447       -0.93086
H          1.97182       -2.84108        1.12855
H         -2.44230        2.52202        1.15604
H         -5.88012        0.95981       -0.32307
H         -4.83346        2.12993        0.43255
H         -4.80688       -1.49788       -0.93640
H         -1.68842       -3.19225       -1.49480
H         -3.39679       -3.09783       -1.76005
H          4.77646        0.06029       -0.73065
H          4.00860        1.54640       -1.21161
