27
Coordinates from ORCA-job ./opt_b97-3c_parallel
N          4.49378        2.34800        0.16205
C          3.54782        1.70875        0.12797
C          2.38396        0.87575        0.08522
C          1.15029        1.47846        0.08954
C          0.33294        0.37697        0.05017
C          1.03287       -0.79773        0.03101
C          0.43921       -2.10790        0.00380
N          0.80323       -3.14977       -0.01372
C         -0.99999       -2.01858        0.02053
C         -1.77380       -0.79696        0.04297
C         -3.21648       -0.95380        0.08637
C         -4.15379        0.06711        0.08249
N         -4.12944        1.40976        0.02278
C         -2.86983        1.94832        0.01024
N         -1.63133        1.61365        0.06667
C         -1.05121        0.46043        0.04751
C          2.43303       -0.55987        0.04696
N          3.29839       -1.24804        0.03816
H          0.95230        2.35220       -0.52756
H          0.45917       -4.01869       -0.41732
H          1.71233       -2.96503       -0.43539
H         -1.59906       -2.91665       -0.12925
H         -3.58339       -1.97483        0.11673
H         -5.20599       -0.25284        0.11266
H         -3.12931        3.01471       -0.06930
H          4.21704       -0.82753        0.16711
H          3.19335       -1.96159        0.75730
