29
Coordinates from ORCA-job ./opt_b97-3c_parallel
N          5.19466        1.80734        0.24343
C          4.16864        1.30585        0.19303
C          2.86768        0.68686        0.11214
C          1.73735        1.49067        0.29640
C          0.39734        1.07376        0.22361
C         -0.57475        2.08977        0.28797
C         -1.93653        1.81054        0.16453
C         -2.31203        0.48934       -0.02968
C         -3.57280       -0.05939       -0.20276
C         -4.82560        0.65119       -0.22553
N         -5.81261        1.22624       -0.24325
C         -3.41241       -1.43088       -0.36036
C         -2.05406       -1.72240       -0.27978
C         -1.37871       -0.52455       -0.07310
C         -0.01175       -0.27211        0.07495
C          0.92991       -1.36720        0.11188
N          0.78934       -2.44193        0.94794
N          2.00113       -1.49529       -0.13216
C          2.78072       -0.71528       -0.22563
N          3.75920       -1.40956       -0.88440
H          1.92030        2.54916        0.47283
H         -0.27054        3.12613        0.41817
H         -2.67529        2.60757        0.20515
H         -4.21001       -2.15183       -0.52318
H         -1.60994       -2.70998       -0.37492
H          1.47184       -3.19124        0.91936
H         -0.11548       -2.63837        1.36073
H          3.69525       -2.41908       -0.95010
H          4.67076       -0.98355       -1.01187
