27
Coordinates from ORCA-job ./opt_b97-3c_parallel
N          3.80369       -1.72671        0.13890
C          2.99726       -0.97738        0.11566
N          3.54740        0.26953        0.02370
C          2.53814        1.18632       -0.02891
N          2.53062        2.28442       -0.08900
N          1.18292        1.41617       -0.04808
C          0.29661        0.34399        0.01986
C          0.59965       -1.07748        0.15021
N          1.83796       -1.71613        0.18856
N         -0.48115       -1.95808        0.23884
C         -1.78923       -1.46418        0.17712
N         -2.19138       -2.49414        0.28253
C         -2.02042       -0.10071        0.00866
C         -3.26770        0.46554       -0.12971
N         -4.36101        0.64066       -0.21436
N         -3.04859        1.80879       -0.28003
C         -1.67530        1.97885       -0.22219
C         -0.99011        0.80207       -0.04036
H          4.68479       -1.24604        0.32598
H          4.06674       -2.65054       -0.20401
H          3.50378        2.21100       -0.38873
H          2.44229        3.21958        0.30901
H         -2.60154       -2.87100        1.14207
H         -2.22485       -3.28398       -0.37156
H         -4.97121        0.46401       -1.01683
H         -4.93132        1.22228        0.40623
H         -1.32229        3.01750       -0.32949
