34
Coordinates from ORCA-job ./opt_b97-3c_parallel
N         -5.87228        0.43037        1.32203
C         -4.84240        0.75641        0.94923
C         -3.58181        0.10261        0.79453
C         -2.30418        0.72268        0.59537
C         -1.26452       -0.03634        0.05859
C         -1.62809       -1.41478       -0.07306
C         -0.65968       -2.20758       -0.74788
C          0.67824       -1.85424       -0.67549
C          1.57425       -2.75820       -1.36725
N          2.27020       -3.46957       -1.92949
C          1.07954       -0.58603       -0.16973
C          2.40081       -0.43030        0.32927
C          3.05137       -1.61421        0.87835
N          3.56163       -2.53288        1.32937
C          3.10915        0.76718        0.53820
N          4.37670        0.72735        1.07329
C          2.73424        2.04097        0.14515
C          1.52656        2.49182       -0.36231
N          1.57127        3.81820       -0.72814
C          0.30642        1.79065       -0.41852
C         -0.78018        2.53777       -1.03936
N         -1.62150        3.13076       -1.53768
C          0.07347        0.41866       -0.12912
C         -2.98372       -1.10178        0.28528
N         -3.71668       -2.22876        0.04171
H         -2.17211        1.73657        0.96456
H         -0.97460       -3.14256       -1.20744
H          4.82926       -0.17407        1.18894
H          4.96739        1.54817        0.99700
H          3.50704        2.80386        0.24978
H          2.47235        4.27481       -0.81836
H          0.77972        4.22003       -1.22041
H         -4.67615       -2.26571        0.37035
H         -3.23346       -3.10340       -0.12961
