33
Coordinates from ORCA-job ./opt_b97-3c_parallel
N         -3.82947       -2.47977        1.62233
C         -3.27066       -1.66557        1.04718
C         -2.60671       -0.61390        0.34170
C         -3.25350        0.64703        0.08188
N         -4.25803        1.08797        0.24728
N         -2.58264        1.75363       -0.46169
C         -1.22907        1.84461       -0.56555
N         -1.49452        2.88447       -0.85243
C         -0.15194        1.00859       -0.24871
C          1.14785        1.65314       -0.14443
N          1.21653        2.57269        0.47568
C          2.41858        0.96035       -0.08459
C          3.76553        1.44925       -0.17731
N          4.84044        1.83116       -0.21252
C          2.31177       -0.40652        0.08691
N          3.24004       -1.36148        0.16213
C          2.48864       -2.52572        0.26417
N          3.13446       -3.42253        0.26286
N          1.18816       -2.37295        0.27997
C          1.06986       -1.08979        0.15502
C         -0.17785       -0.36618       -0.04200
C         -1.39242       -0.97025       -0.16104
N         -1.49430       -1.61554       -1.33955
H         -4.88060        0.29178        0.40827
H         -4.86245        1.90557        0.35569
H         -0.62974        3.35383       -0.57048
H         -1.94072        3.53759       -1.50238
H          1.14273        2.95845        1.41984
H          2.01257        3.06006        0.05476
H          2.86552       -4.38171        0.03844
H          4.15079       -3.44398        0.36291
H         -2.33014       -2.16819       -1.54338
H         -0.71074       -2.16042       -1.70062
