28
Coordinates from ORCA-job ./opt_b97-3c_parallel
N         -5.89634        1.50332       -0.00168
C         -4.82909        1.09331       -0.00129
C         -3.48848        0.56108       -0.00083
C         -3.36903       -0.81981        0.00080
C         -2.21764       -1.59285        0.00076
C         -0.86534       -1.22688       -0.00071
C         -0.01061       -2.34286       -0.00329
C          1.37061       -2.22973       -0.00768
N          2.16966       -3.33619       -0.02166
C          1.96964       -0.93832       -0.00338
C          3.26767       -0.30386       -0.00265
C          3.15668        1.06910       -0.00308
C          4.25630        1.99704       -0.00285
N          5.13940        2.72234       -0.00264
C          1.82575        1.39889       -0.00338
C          1.08783        0.21490       -0.00294
C         -0.32429        0.08380       -0.00186
C         -1.07788        1.27073       -0.00252
C         -2.45159        1.48273       -0.00232
H         -4.30031       -1.38472        0.00169
H         -2.43152       -2.65976        0.00163
H         -0.42827       -3.34804       -0.00462
H          1.76035       -4.26287        0.01878
H          3.17778       -3.23256        0.01602
H          4.24614       -0.77832       -0.00149
H          1.46070        2.42081       -0.00356
H         -0.54383        2.21053       -0.00400
H         -2.74777        2.53070       -0.00370
