30
Coordinates from ORCA-job ./opt_b97-3c_parallel
N         -5.68818        0.33991        0.25630
C         -4.55292        0.34401        0.12624
C         -3.11554        0.33506       -0.03161
C         -2.64935        1.60828       -0.51496
N         -1.71450        2.17490       -0.36127
C         -0.83104        1.73488        0.13064
C         -0.15771        0.46398        0.02855
C         -0.87043       -0.76969        0.05316
C         -0.10327       -1.97320       -0.03857
N         -0.64733       -3.22385       -0.16246
C          1.29174       -1.94965       -0.10066
C          1.94102       -0.73027       -0.08825
C          3.29987       -0.46043       -0.13000
C          4.36925       -1.42281       -0.18226
N          5.21031       -2.19576       -0.21659
C          3.45021        0.91774       -0.09815
C          2.18350        1.48847       -0.04164
C          1.95420        2.90995        0.01057
N          1.78403        4.03867        0.06312
C          1.24223        0.45377       -0.03486
C         -2.29358       -0.78808        0.18965
N         -2.94835       -1.92183        0.60526
H         -3.18543        2.34562       -1.10270
H         -0.70055        2.51157        0.87740
H         -1.62995       -3.28865       -0.40806
H         -0.04315       -3.98209       -0.45991
H          1.86287       -2.87363       -0.17253
H          4.39472        1.45715       -0.11051
H         -2.39253       -2.65947        1.02550
H         -3.91287       -1.83390        0.90792
