29
Coordinates from ORCA-job ./opt_b97-3c_parallel
N          5.19123       -1.04304       -0.62815
C          4.11852       -0.68124       -0.47356
C          2.77392       -0.21537       -0.31695
C          1.76961       -1.14632       -0.23318
C          0.69258       -0.31930       -0.02710
C          1.06153        1.05278       -0.05030
C          2.41063        1.16963       -0.21921
N          3.05365        2.06914       -0.24396
C          0.15748        2.10891        0.28613
N          0.33689        2.67094        1.22344
C         -1.13643        1.82472       -0.26710
C         -1.93422        2.96861       -0.62136
N         -2.55061        3.89635       -0.87714
C         -1.61124        0.45215       -0.17003
N         -2.97153        0.38932       -0.42098
C         -3.57085       -0.82119       -0.34764
N         -3.56724       -2.15095       -0.10684
C         -2.34496       -2.64966        0.27148
C         -1.05498       -1.99289        0.35509
C         -0.11584       -2.96034        0.84853
N          0.60160       -3.75221        1.25367
C         -0.74494       -0.63226        0.09312
H          1.71784       -1.94997       -0.96505
H          2.99332        2.96214       -0.73007
H          4.04094        1.82005       -0.20558
H          1.33912        2.84002        1.14333
H         -0.12597        3.55975        1.03852
H         -4.59425       -0.52011       -0.61860
H         -2.77628       -3.64949        0.42816
