28
Coordinates from ORCA-job ./opt_b97-3c_parallel
N          3.47376       -3.08117       -0.00209
C          3.03452       -2.02670       -0.00124
C          2.43136       -0.72101       -0.00010
C          0.99251       -0.71003        0.00770
C          0.11980        0.43912        0.01180
C          0.51646        1.76436        0.00576
C          1.76652        2.33768       -0.00293
C          3.01528        1.77132       -0.00733
C          3.31103        0.35480       -0.00569
N          4.42116        0.34710       -0.01086
C         -0.51917        2.77018        0.00919
N         -1.89275        2.58035        0.01959
C         -2.24690        1.28498        0.02710
N         -3.54677        0.82085        0.04131
C         -3.48676       -0.56692        0.04790
N         -4.48158       -1.05679        0.06145
C         -2.11325       -1.00140        0.03625
C         -1.75084       -2.38297        0.04104
N         -1.51055       -3.49978        0.04479
C         -1.32038        0.20406        0.02345
H          0.56454       -1.69430        0.01029
H          1.79640        3.42481       -0.00549
H          3.83580        2.49556       -0.01289
H          5.24401        0.94857       -0.01529
H          4.77325       -0.60968       -0.01231
H         -0.49883        3.87187        0.00581
H         -4.45884       -2.07945        0.07590
H         -5.47360       -0.81370        0.08069
