31
Coordinates from ORCA-job ./opt_b97-3c_parallel
N         -2.77733        3.95408       -0.29560
C         -2.40830        2.87709       -0.19348
C         -1.92574        1.51142       -0.07995
C         -0.54470        1.43990        0.05871
C          0.33077        0.35114        0.05848
C         -0.01606       -1.02421       -0.00997
C          1.04951       -1.95625       -0.17709
C          2.39035       -1.59702       -0.20091
C          2.69645       -0.26743       -0.02421
C          3.93998        0.33991        0.04034
C          5.22368       -0.30407       -0.06476
N          6.23777       -0.82238       -0.15892
C          3.72399        1.69420        0.23321
C          2.35089        1.90949        0.27074
C          1.70434        0.67992        0.10556
C         -1.32274       -1.56961        0.10871
N         -1.38155       -2.93238        0.33467
C         -2.58168       -0.91616        0.05795
C         -3.76191       -1.77326        0.15350
N         -4.68517       -2.44458        0.24183
C         -2.85367        0.46003       -0.10552
N         -4.17858        0.83384       -0.25414
H         -0.07865        2.41810        0.09924
H          0.87258       -3.01823       -0.32154
H          3.16804       -2.34514       -0.33347
H          4.49322        2.45542        0.34018
H          1.89587        2.88270        0.42406
H         -0.54151       -3.39584        0.66104
H         -2.26857       -3.33079        0.62485
H         -4.88213        0.11921       -0.40645
H         -4.39905        1.79123       -0.50827
