37
Coordinates from ORCA-job ./opt_b97-3c_parallel
N          4.54131       -2.54094       -0.53830
C          3.67996       -1.81370       -0.35094
C          2.57300       -0.88996       -0.12424
C          2.79780        0.45472       -0.46576
N          3.96434        0.75899       -1.14380
C          2.06604        1.52485        0.07663
C          2.72657        2.82513        0.09834
N          3.24566        3.84411        0.12707
C          0.75491        1.46981        0.58621
N          0.34250        2.54830        1.33988
C         -0.20071        0.46707        0.30551
C          0.09229       -0.92230        0.26925
C          1.40471       -1.43290        0.44746
N          1.56594       -2.62554        1.12231
C         -0.99765       -1.84035        0.12127
N         -0.80666       -3.18969       -0.07919
C         -2.32869       -1.40072        0.06036
C         -3.43729       -2.32488       -0.08033
N         -4.31213       -3.05024       -0.20467
C         -2.58421       -0.04035        0.07657
C         -3.89087        0.54551       -0.03261
C         -3.44948        1.90883       -0.18141
N         -4.36658        2.87841       -0.47174
C         -2.04711        2.20620       -0.02432
C         -1.55576        0.86422        0.16650
H          4.29787        1.71764       -1.12863
H          4.65400        0.02603       -1.27621
H         -0.63500        2.63168        1.59677
H          0.93536        3.36947        1.40521
H          2.45690       -3.10891        1.06762
H          0.74253       -3.15917        1.38030
H          0.11918       -3.52551       -0.32279
H         -1.60638       -3.77618       -0.29514
H         -4.79167        0.09365       -0.43653
H         -5.30118        2.60451       -0.75643
H         -4.04305        3.80736       -0.72005
H         -1.51611        3.01255       -0.52121
