34
Coordinates from ORCA-job ./opt_b97-3c_parallel
N          3.58537        3.22599        0.56778
C          2.97374        2.28449        0.34945
C          2.19777        1.07402        0.08998
C          2.92849       -0.00382       -0.42340
N          4.24498        0.17530       -0.78403
C          2.49654       -1.31032       -0.56586
C          1.28565       -1.91167       -0.23985
N          1.35856       -3.26011       -0.48909
C          0.05492       -1.29895        0.12033
C         -1.07231       -2.12513        0.43215
N         -1.01542       -3.43878        0.81161
N         -2.34533       -1.70056        0.48171
C         -2.56320       -0.41324        0.21657
C         -3.91055        0.06307        0.12980
C         -3.42791        1.36334       -0.25900
N         -4.35212        2.28291       -0.66535
C         -2.05589        1.79899       -0.30163
C         -1.54674        0.50137        0.06139
C         -0.17973        0.10878        0.13450
C          0.80175        1.12576        0.31145
N          0.35922        2.30777        0.87134
H          4.81797       -0.63274       -1.00033
H          4.70567        1.05194       -0.56156
H          3.26224       -1.98984       -0.94480
H          0.48858       -3.77281       -0.59054
H          2.17104       -3.61813       -0.97856
H         -1.84413       -3.84564        1.23041
H         -0.11474       -3.81019        1.09387
H         -4.73374       -0.47841       -0.32548
H         -4.03164        3.13035       -1.12111
H         -5.30243        1.97517       -0.84149
H         -1.62090        2.45121       -1.05293
H          1.04522        2.97348        1.21237
H         -0.56659        2.33139        1.28301
