34
Coordinates from ORCA-job ./opt_b97-3c_parallel
N         -1.57721       -4.34039       -0.24389
C         -1.40532       -3.21107       -0.19844
C         -1.19273       -1.77406       -0.15756
C         -2.30418       -0.97627       -0.43304
N         -3.55320       -1.47298       -0.70455
C         -2.29511        0.44213       -0.25632
C         -3.35169        1.36285        0.05537
C         -2.69197        2.49055        0.64189
C         -1.26864        2.30543        0.65041
N         -0.67861        3.37911        1.25465
C         -1.01960        1.02954        0.02632
C          0.19156        0.21590       -0.12613
C          1.37154        0.94055       -0.43422
C          1.19738        2.23745       -1.07675
N          1.07769        3.24845       -1.59718
C          2.71306        0.55932       -0.22653
N          3.72059        1.46044       -0.48336
C          3.18886       -0.64019        0.28370
C          2.49979       -1.81690        0.51336
N          3.25951       -2.88351        0.91111
C          1.14848       -2.06551        0.31741
C          0.08440       -1.18778        0.03621
H         -3.71195       -2.46956       -0.59661
H         -4.35073       -0.85276       -0.61565
H         -4.38779        1.26041        0.36795
H         -3.21043        3.36690        1.02058
H          0.31829        3.50737        1.11602
H         -1.23624        4.21560        1.38640
H          4.68592        1.21768       -0.29061
H          3.49755        2.39011       -0.82417
H          4.26351       -0.68969        0.45950
H          2.85374       -3.81245        0.87395
H          4.26983       -2.80448        0.87312
H          0.91053       -3.11207        0.47820
