32
Coordinates from ORCA-job ./opt_b97-3c_parallel
N          5.04009       -0.49027       -0.09945
C          3.98738       -0.04847       -0.07090
C          2.67210        0.52103        0.00369
C          2.59752        1.88850       -0.07742
N          3.57584        2.80674        0.00758
C          1.31858        2.23209       -0.23104
C          0.47475        1.01268       -0.22462
C          1.35031       -0.03546       -0.05500
C          0.93343       -1.36627        0.07799
C          1.91592       -2.41388        0.25771
N          2.67909       -3.25358        0.39434
C         -0.44177       -1.68275        0.02984
N         -0.82321       -2.99908        0.14101
C         -1.42503       -0.68129       -0.14186
C         -2.80491       -1.12102       -0.29620
N         -3.59468       -1.88490       -0.42023
N         -3.94773       -0.48015        0.00350
C         -3.94916        0.82658        0.29604
N         -3.04127        1.74143        0.22356
C         -1.78062        1.81348       -0.04806
N         -1.89368        2.90813        0.03777
C         -0.91950        0.67666       -0.25271
H          4.49434        2.53655        0.35540
H          3.37026        3.73916        0.36096
H          1.01675        3.27488       -0.30352
H         -1.79637       -3.20748        0.34036
H         -0.12687       -3.68341        0.41865
H         -4.44297       -2.22304       -0.87021
H         -2.81005       -2.18949       -0.99236
H         -4.88160        1.33711        0.57906
H         -1.21881        2.68438       -0.69040
H         -2.54857        3.57428       -0.36855
