33
Coordinates from ORCA-job ./opt_b97-3c_parallel
N         -4.37253        1.40945       -0.37356
C         -3.16189        0.90368        0.00663
C         -1.97167        1.70891        0.07383
C         -0.66347        1.20806        0.07325
C          0.35223        2.15709        0.10470
C          1.68682        1.78204        0.12576
N          2.65656        2.74360        0.15081
C          2.09605        0.40117        0.06326
C          3.38561       -0.22901        0.01350
N          4.66745        0.17850        0.25004
C          3.08365       -1.61316       -0.21471
C          1.67173       -1.87262       -0.26549
N          1.35849       -3.14043       -0.66664
C          1.05806       -0.59321       -0.03260
C         -0.32805       -0.16192        0.05564
C         -1.28128       -1.18569        0.14507
C         -2.70220       -0.99400        0.26880
N         -3.56341       -2.01763        0.54679
N         -3.41721       -0.15976        0.15848
H         -5.14333        0.77576       -0.55320
H         -4.43190        2.35056       -0.74466
H         -2.15988        2.78047        0.10414
H          0.10222        3.21632        0.12600
H          3.60744        2.46705       -0.06871
H          2.38997        3.70558       -0.02717
H          4.80752        1.08419        0.68399
H          5.37968       -0.52859        0.39414
H          3.84421       -2.37859       -0.33759
H          0.42139       -3.31683       -1.01110
H          2.10446       -3.74144       -0.99947
H         -0.99262       -2.23277        0.16326
H         -4.54255       -1.81794        0.71836
H         -3.20247       -2.92386        0.82114
