28
Coordinates from ORCA-job ./opt_b97-3c_parallel
N          5.67187        0.61426       -0.45218
C          4.60389        0.23707       -0.29573
C          3.24354       -0.16415       -0.14142
C          2.89096       -1.54518        0.09739
N          1.80737       -1.82382        0.21639
C          1.09420       -0.67921        0.09928
C          1.93880        0.36954       -0.12975
N          1.59797        1.65332       -0.32534
C          0.27094        1.89055       -0.26206
C         -0.69217        0.89812       -0.01841
C         -2.06243        1.33084        0.11408
N         -2.41800        2.43351        0.84322
N         -3.04774        0.89439       -0.13111
C         -3.29020       -0.17767       -0.24845
N         -4.44911       -0.22460       -0.96997
C         -2.61866       -1.37031        0.19703
C         -1.23344       -1.50634        0.34482
N         -0.82913       -2.77134        0.67840
C         -0.29933       -0.45448        0.14677
H          3.53326       -2.41211        0.18993
H         -0.01907        2.93120       -0.39649
H         -3.38085        2.75076        0.84283
H         -1.70298        3.07258        1.17191
H         -4.97418        0.62593       -1.13882
H         -4.91087       -1.11333       -1.12851
H         -3.28236       -2.21655        0.36374
H         -1.49291       -3.53456        0.61060
H          0.16071       -2.99174        0.64761
