31
Coordinates from ORCA-job ./opt_b97-3c_parallel
N          5.26855       -2.29762       -0.60989
C          4.33563       -1.66999       -0.40565
C          3.15295       -0.87645       -0.16950
C          3.37170        0.48248       -0.00615
C          2.43123        1.48017        0.19039
C          2.95714        2.81104        0.37735
N          3.37297        3.86255        0.54276
C          1.04546        1.35992        0.19094
C          0.21641        0.23321        0.09392
C          0.61904       -1.12676        0.04601
C          1.94845       -1.57393       -0.10185
C         -0.38592       -2.13641        0.11566
N         -0.05986       -3.47109        0.19744
C         -1.75373       -1.81378        0.13018
C         -2.78123       -2.83406        0.18982
N         -3.58126       -3.64879        0.24587
C         -2.12639       -0.47888        0.07129
N         -3.38516        0.00916        0.02578
C         -3.22610        1.11476       -0.03090
N         -4.38811        1.82363       -0.16462
C         -1.90465        1.71090       -0.00579
C         -1.82621        3.13709       -0.14287
N         -1.42250        4.15115       -0.48159
C         -1.16677        0.49229        0.06952
H          4.41271        0.80678       -0.03557
H          0.54742        2.31254        0.31883
H          2.09984       -2.64278       -0.22061
H         -0.79632       -4.13068        0.42856
H          0.88774       -3.72433        0.45329
H         -5.25585        1.32705       -0.33492
H         -4.35127        2.80912       -0.40173
