30
Coordinates from ORCA-job ./opt_b97-3c_parallel
N          5.23094       -0.06743        0.31507
C          4.12657       -0.35692        0.25315
C          2.74082       -0.74332        0.17237
C          2.31074       -2.06075        0.16206
C          0.92779       -2.06708        0.05875
C          0.14381       -3.27426       -0.00117
N         -0.46693       -4.23837       -0.06200
C          0.49288       -0.74067        0.00017
C          1.61286        0.07199        0.06718
C          1.48849        1.46076        0.01481
C          2.61131        2.36114        0.10324
N          3.48809        3.09008        0.17865
C          0.20981        2.00230       -0.12529
C         -0.95014        1.20154       -0.19031
C         -2.20811        1.83999       -0.33763
N         -2.27849        3.18139       -0.60763
C         -3.44676        1.19973       -0.22609
C         -3.62010       -0.17359        0.16666
N         -4.69246       -0.59603        0.89828
N         -3.00460       -1.08418        0.07218
C         -1.93563       -1.08736       -0.20475
C         -0.79846       -0.20474       -0.11699
H          2.95032       -2.93930        0.21545
H          0.13440        3.08657       -0.15916
H         -1.44161        3.65215       -0.93262
H         -3.17200        3.56642       -0.89419
H         -4.37398        1.75263       -0.36267
H         -5.45941        0.03763        1.09328
H         -4.81577       -1.58227        1.09845
H         -2.11888       -1.88825       -0.91373
