28
Coordinates from ORCA-job ./opt_b97-3c_parallel
N         -5.16093        1.00499        0.25475
C         -4.27830        0.28323        0.18863
C         -3.13358       -0.56894        0.10845
C         -3.06083       -1.90814        0.00246
C         -1.79064       -2.27962       -0.07361
C         -0.83227       -1.12844       -0.01221
C         -1.79845       -0.06663        0.09288
N         -1.51774        1.28687        0.12412
C         -0.16672        1.62085        0.05657
N         -0.58831        2.64692        0.10165
C          0.84004        0.65458       -0.01714
C          2.15187        1.28834       -0.08692
N          2.73227        2.22840       -0.12281
N          3.36513        0.70163       -0.08533
C          3.38363       -0.66723       -0.04410
N          4.43113       -1.01449       -0.00532
N          2.78916       -1.89358       -0.01748
C          1.40877       -1.88640       -0.03459
C          0.55012       -0.71984       -0.02397
H         -3.91536       -2.58461       -0.02131
H         -1.52826       -3.33029       -0.16997
H         -0.33966        3.25499        0.88621
H         -1.26378        3.19173       -0.44076
H          3.59467        2.69882        0.15691
H          2.38384        2.75224       -0.92565
H          4.84180       -1.94894       -0.03721
H          5.20859       -0.38709        0.20322
H          1.34409       -2.98629       -0.03256
