30
Coordinates from ORCA-job ./opt_b97-3c_parallel
N         -4.70013        1.99478       -0.15370
C         -3.81956        1.34061        0.17424
C         -2.75381        0.37919        0.09523
C         -1.50011        1.10863        0.26189
C         -0.20403        0.62704        0.10440
C          0.12352       -0.78490        0.06440
C         -0.76784       -1.73345        0.45038
N         -0.73209       -2.54178        1.52232
C         -1.94036       -1.95845       -0.18385
C         -2.95890       -0.94767       -0.26760
N         -3.90817       -1.42552       -0.58203
C          1.39390       -1.27756       -0.14451
N          1.63508       -2.41378       -0.83164
C          2.42506       -0.38784       -0.01792
C          3.80745       -0.76607        0.07953
N          4.80867       -1.22043       -0.23477
C          2.16255        1.02018        0.02740
N          3.04447        2.00759        0.09545
C          2.17200        3.08335        0.13932
N          0.88973        2.83008        0.10793
C          0.84665        1.53625        0.05815
H         -1.59366        2.18078        0.42287
H          0.16869       -2.84076        1.89231
H         -1.36201       -3.34016        1.57345
H         -2.17553       -2.96911       -0.52088
H         -4.59691       -0.67917       -0.66717
H         -4.39043       -2.22077       -0.16749
H          0.92428       -2.81793       -1.43813
H          2.55174       -2.58422       -1.24323
H          2.45924        4.14397        0.20055
