28
Coordinates from ORCA-job ./opt_b97-3c_parallel
N         -0.86329       -4.29673       -0.17301
C         -0.45468       -3.23132       -0.11084
C          0.08229       -1.89141       -0.02643
C          1.46728       -1.76657        0.08394
C          2.05307       -0.50950        0.15493
C          3.42178       -0.33742        0.25005
C          3.88939        1.01495        0.27171
C          2.51101        1.31881       -0.01919
N          2.33632        2.56462       -0.55454
C          1.23264        0.66253        0.10890
C         -0.20293        0.52548        0.07357
C         -0.92123        1.72892        0.17758
C         -2.30778        1.94122        0.18401
N         -2.73611        3.22728        0.35880
C         -3.29503        0.96768        0.02813
C         -3.06171       -0.42729       -0.19057
N         -2.09040       -0.92794       -0.13882
C         -0.76132       -0.76251       -0.03497
H          2.09360       -2.65687        0.10681
H          4.08942       -1.19555        0.28616
H          4.75521        1.37369       -0.27635
H          1.43100        2.81459       -0.93746
H          3.14781        3.10492       -0.83276
H         -0.31444        2.62532        0.29064
H         -3.71639        3.38710        0.56269
H         -2.06777        3.92006        0.67885
H         -4.35037        1.23085        0.04625
H         -3.60089       -1.10908       -0.83773
