33
Coordinates from ORCA-job ./opt_b97-3c_parallel
N         -5.47189        0.23361       -0.67503
C         -4.35520        0.40526       -0.50040
C         -2.94206        0.62956       -0.26231
C         -2.54033        1.92686       -0.54434
C         -1.41864        2.53298       -0.01971
C         -0.28459        1.91785        0.48669
N          0.47335        2.72969        1.28619
C          0.13993        0.60499        0.20519
C         -0.73915       -0.52065        0.19044
C         -2.15752       -0.40287        0.28835
N         -2.87763       -1.40456        0.90247
C         -0.15771       -1.83184        0.11968
N         -0.90879       -2.96962       -0.07937
C          1.23101       -2.02993        0.12076
C          1.83048       -3.34708        0.04341
N          2.30683       -4.38414       -0.03247
C          2.04476       -0.91652        0.07224
C          3.42263       -0.88380       -0.08913
C          3.77891        0.43794       -0.26335
C          2.62822        1.21054       -0.19517
C          2.65254        2.59782       -0.59281
N          2.69324        3.69601       -0.90745
C          1.53114        0.36429        0.06821
H         -3.28307        2.60207       -0.96733
H         -1.45348        3.62046        0.02156
H          1.39221        2.41654        1.57830
H          0.27970        3.72523        1.30020
H         -3.89128       -1.36743        0.92427
H         -2.39684       -2.21183        1.28559
H         -0.43321       -3.83917       -0.29611
H         -1.87305       -2.86503       -0.37674
H          4.09325       -1.73773       -0.15472
H          4.77804        0.79913       -0.49643
