31
Coordinates from ORCA-job ./opt_b97-3c_parallel
N          4.83966       -1.90568       -0.46932
C          3.83955       -1.37302       -0.31993
C          2.53524       -0.72804       -0.14304
C          2.53142        0.70470        0.14133
N          3.53231        1.16257        0.33310
C          1.40448        1.63528        0.05544
C          1.70449        3.05609        0.25076
N          1.89923        4.17139        0.40007
C          0.05618        1.32092       -0.22256
N         -0.61885        2.16885       -0.48964
C         -0.60791        0.01339       -0.08332
C          0.02499       -1.23166        0.00809
C         -0.82163       -2.42937        0.22564
N         -2.16442       -2.48320        0.30396
C         -2.73041       -1.25233        0.14259
N         -4.05109       -1.06277        0.16230
C         -4.22387        0.30575       -0.01617
N         -5.14346        0.91627       -0.07832
N         -2.99484        0.94493       -0.12967
C         -2.07805       -0.03155       -0.04892
C          1.38770       -1.54076       -0.14685
N          1.59289       -2.63525       -0.28542
H          4.41628        0.65887        0.40269
H          3.76111        2.14811        0.45992
H         -0.04099        2.98916       -0.67309
H         -1.50742        2.40146       -0.92771
H         -0.80576       -3.52378        0.35370
H         -6.10806        0.60017        0.03673
H         -5.21220        1.90138       -0.33950
H          1.68247       -3.05284       -1.21245
H          2.40195       -2.96842        0.24247
