29
Coordinates from ORCA-job ./opt_b97-3c_parallel
N         -4.73429        2.42339        0.24141
C         -3.84785        1.71430        0.13188
C         -2.71043        0.84832        0.02370
C         -2.61211       -0.51257       -0.04059
N         -3.44989       -1.23516       -0.01294
C         -1.28192       -0.82007       -0.09668
C         -0.76103       -2.15634       -0.10146
N         -0.82486       -3.25508       -0.10458
N          0.57335       -2.29606        0.00550
C          1.48907       -1.30240        0.05292
N          2.79938       -1.75620        0.21226
C          3.86397       -0.88575        0.21232
N          4.31937        0.39785        0.08163
C          3.22649        1.19737       -0.11222
N          3.47697        2.26027       -0.28352
N          1.85217        1.24125       -0.18945
C          1.04907        0.09903       -0.07698
C         -0.38344        0.29742       -0.09992
C         -1.36722        1.36918       -0.00183
N         -0.92764        2.38299        0.04508
H         -4.28290       -0.64902       -0.10463
H         -3.78899       -2.12873        0.34470
H         -0.70583       -4.25095       -0.28932
H         -1.79157       -3.03941       -0.35077
H          4.79697       -1.44852        0.38395
H          2.93974        3.04745       -0.65322
H          4.44069        2.59889       -0.24931
H         -1.84775        2.82124        0.10940
H         -0.25802        3.14454        0.14118
