31
Coordinates from ORCA-job ./opt_b97-3c_parallel
N          3.64488        3.55532       -0.07396
C          2.75961        2.83826       -0.02866
C          1.63760        1.93081        0.01155
C          0.34359        2.44197        0.07797
C         -0.77150        1.59754        0.12378
C         -2.03026        2.22059        0.15093
C         -3.26461        1.57858        0.03876
C         -3.42701        0.16656       -0.19130
N         -4.51454       -0.31714       -0.86174
N         -2.75145       -0.66848        0.07432
C         -1.67913       -0.70756        0.34813
N         -1.67761       -1.61815        1.37194
C         -0.57308        0.19976        0.13173
C          0.73231       -0.30435        0.00878
C          1.07594       -1.69998       -0.06447
C          0.54603       -2.89196       -0.65545
N          0.24919       -3.97577       -0.44587
C          2.49472       -1.42869       -0.20114
N          3.49646       -2.34769       -0.36981
C          3.08407       -0.11657       -0.05371
C          1.81624        0.54804       -0.03131
H          0.20177        3.52329        0.08981
H         -2.06209        3.30578        0.21929
H         -4.18000        2.16559        0.04964
H         -4.67648       -1.31529       -0.92577
H         -5.24785        0.31482       -1.16742
H         -2.42274       -2.30344        1.41731
H         -0.78837       -1.88117        1.78175
H          4.41582       -2.03132       -0.66110
H          3.24033       -3.30928       -0.57715
H          4.03738        0.25647       -0.41681
