29
Coordinates from ORCA-job ./opt_b97-3c_parallel
N         -3.82838       -3.18462        0.02531
C         -2.90849       -2.50778        0.00553
C         -1.75487       -1.64610       -0.00671
C         -0.46426       -2.16918       -0.04928
C          0.66546       -1.33154       -0.05620
C          1.90592       -1.99209       -0.10131
C          3.16974       -1.40087       -0.08757
C          3.40005        0.01359        0.01400
N          4.65410        0.54053        0.13495
N          2.74964        0.90596        0.03307
C          1.64702        0.96243       -0.02272
N          1.62900        2.30360       -0.29942
C          0.49728        0.07705       -0.02177
C         -0.81421        0.58500        0.01726
N         -1.24941        1.86795        0.04790
C         -2.37627        1.86626        0.05889
N         -3.13003        3.00217        0.05135
C         -3.00943        0.56939        0.05812
C         -1.87614       -0.26688        0.02443
H         -0.33961       -3.25036       -0.07418
H          1.89815       -3.07875       -0.14990
H          4.05590       -2.02967       -0.13372
H          4.76980        1.53113        0.31694
H          5.45212       -0.07021        0.26505
H          0.73936        2.79124       -0.29376
H          2.46741        2.85420       -0.15210
H         -2.68132        3.89708       -0.10856
H         -4.13188        2.94003       -0.09128
H         -4.06894        0.33430        0.05679
