30
Coordinates from ORCA-job ./opt_b97-3c_parallel
N         -5.25758       -0.38446       -0.02343
C         -4.12231       -0.24782       -0.00733
C         -2.67451       -0.08096        0.00098
C         -2.19289        1.24047       -0.02466
N         -3.09729        2.27609       -0.06884
C         -0.86981        1.67755       -0.00602
C          0.34036        0.98610        0.01929
N          1.41671        1.82677        0.03414
C          2.67583        1.34933        0.04442
N          3.69043        2.26045        0.06272
C          2.89756       -0.01527        0.03008
C          4.08649       -0.72527        0.02460
C          3.74841       -2.07149        0.00465
C          2.36128       -2.17709        0.00151
C          1.83157       -0.88649        0.01858
C          0.50271       -0.41950        0.02161
C         -0.51162       -1.38221        0.03355
C         -1.90121       -1.25684        0.03463
N         -2.54997       -2.46946        0.06955
H         -2.77127        3.22318        0.08941
H         -4.08265        2.07606        0.06849
H         -0.75956        2.76299       -0.01893
H          4.63131        1.94754       -0.14632
H          3.46251        3.23597       -0.09281
H          5.09161       -0.31116        0.03203
H          4.44942       -2.90247       -0.00756
H          1.81295       -3.11482       -0.01671
H         -0.17472       -2.41342        0.05361
H         -3.55423       -2.49268       -0.07654
H         -2.02151       -3.31961       -0.09079
