33
Coordinates from ORCA-job ./opt_b97-3c_parallel
N         -5.55336       -0.10343       -0.96086
C         -4.45219       -0.16617       -0.66135
C         -3.05448       -0.22806       -0.28485
C         -2.66221       -1.52739        0.20739
N         -3.35110       -2.22722        1.16078
N         -1.73436       -2.11915        0.11980
C         -0.79060       -1.71437       -0.28654
C         -0.10404       -0.45773       -0.11337
C         -0.77020        0.79666       -0.12317
C         -2.17621        0.87188       -0.37890
N         -2.74466        2.04142       -0.82443
C          0.03476        1.96244        0.07903
N         -0.51637        3.20863        0.26102
C          1.43914        1.87547        0.18703
C          2.26687        3.05057        0.36967
N          2.90720        3.98603        0.51711
C          2.05179        0.62872        0.11724
N          3.37391        0.35155        0.16167
C          3.40529       -0.76552        0.05952
N          4.66169       -1.30067        0.01806
C          2.20334       -1.56621       -0.05021
C          2.21524       -2.99015       -0.19104
N          2.05492       -4.06304       -0.55064
C          1.28503       -0.48666       -0.00433
H         -3.06883       -3.17646        1.37780
H         -4.31169       -1.96936        1.36117
H         -0.49709       -2.70685        0.04028
H         -3.67954        2.00264       -1.21732
H         -2.12623        2.77336       -1.15889
H         -1.50953        3.26669        0.46165
H          0.07790        3.95158        0.61464
H          4.78446       -2.27242       -0.24484
H          5.46096       -0.68222       -0.06756
