26
Coordinates from ORCA-job ./opt_b97-3c_parallel
N          2.70378       -3.21923       -0.60705
C          2.79203       -2.20279       -0.09157
C          2.24458       -0.88404        0.02037
C          3.39618       -0.04609       -0.22602
N          3.27072        1.06688       -0.29441
C          1.95218        1.30256       -0.14250
N          1.32798        2.49493       -0.21716
C         -0.01726        2.49557       -0.09372
C         -0.77864        1.34024        0.11386
C         -2.20596        1.50104        0.23177
N         -3.09298        0.88649       -0.00582
C         -3.11618       -0.21634       -0.03494
N         -4.20139       -0.50007       -0.81379
C         -2.22860       -1.24081        0.44837
C         -0.83795       -1.10921        0.52216
N         -0.18009       -2.23467        0.93675
C         -0.13647        0.08875        0.24117
C          1.26195        0.13763        0.08845
H          4.43447       -0.30100       -0.41047
H         -0.48987        3.47331       -0.16670
H         -2.78720        2.41611        0.23126
H         -4.83482        0.23973       -1.09571
H         -4.48116       -1.46233       -0.96798
H         -2.71527       -2.17870        0.70880
H         -0.72813       -3.00029        1.31336
H          0.77737       -2.14482        1.25769
