26
Coordinates from ORCA-job ./opt_b97-3c_parallel
N         -3.96232        1.72867        0.00733
C         -2.93247        1.23099        0.00089
C         -1.61937        0.61962       -0.00143
C         -0.43754        1.38488       -0.00534
N         -0.57996        2.75352        0.01725
C          0.85218        0.77193       -0.01570
C          1.96383        1.63636       -0.08498
C          3.32750        1.37004       -0.09282
C          3.98467        0.15659       -0.00524
C          3.41978       -1.10134        0.08371
C          2.07673       -1.44729        0.08334
C          0.92837       -0.64477        0.02905
C         -0.28713       -1.34142        0.02490
C         -0.59253       -2.72469        0.02384
C         -2.03435       -2.69953       -0.00584
N         -2.51028       -1.68015       -0.00984
C         -1.51530       -0.76357        0.00075
H         -1.50096        3.13541        0.20636
H          0.22175        3.31861        0.27094
H          1.78133        2.70253       -0.16004
H          3.97295        2.24245       -0.16774
H          5.07133        0.19660       -0.01011
H          4.12198       -1.92961        0.14815
H          1.92844       -2.52016        0.14410
H          0.04556       -3.60151        0.01794
H         -2.73773       -3.52329       -0.03291
