26
Coordinates from ORCA-job ./opt_b97-3c_parallel
N         -4.48460       -2.38379        0.33756
C         -3.52562       -1.79060        0.16022
C         -2.33751       -1.01869       -0.03974
C         -1.11245       -1.51776       -0.32874
C         -0.36373       -0.36243       -0.18549
C         -1.04377        0.84020       -0.17921
C         -0.30140        1.98167       -0.20026
N         -0.41959        3.07100       -0.31567
N          1.02323        2.03751       -0.02628
C          1.74522        0.90714        0.09468
N          3.12194        1.04762        0.29605
C          3.90180       -0.09565        0.35645
C          3.80727       -1.45325        0.25121
C          2.56058       -1.92762       -0.04394
N          1.59046       -1.39284       -0.01764
C          1.08749       -0.40094       -0.03137
C         -2.30277        0.38780        0.06321
N         -3.04638        1.17454        0.29116
H         -0.79559       -2.46895        0.09580
H         -1.41430        2.99971       -0.52920
H         -0.12802        4.00137       -0.61184
H          4.91911        0.27851        0.54880
H          4.69245       -2.05650        0.05839
H          2.73184       -2.75540       -0.75035
H         -3.22563        2.04058        0.79764
H         -3.93970        0.68497        0.23805
