29
Coordinates from ORCA-job ./opt_b97-3c_parallel
N          5.25950        0.40901       -0.00562
C          4.12440        0.27161       -0.02805
C          2.67781        0.09546       -0.03714
C          2.20417       -1.22984       -0.02778
N          3.11602       -2.25976       -0.03141
C          0.88357       -1.67616       -0.01474
C         -0.32999       -0.99077       -0.00259
N         -1.40833       -1.82833        0.02411
C         -2.66399       -1.33879        0.03903
N         -3.68730       -2.24066        0.06810
C         -2.87704        0.03108        0.02492
C         -4.09862        0.76630        0.03847
N         -3.28940        1.55667        0.01541
C         -2.36342        2.20469       -0.00889
C         -1.82619        0.87809       -0.00248
C         -0.49654        0.41297       -0.01654
C          0.50830        1.38347       -0.04383
C          1.89809        1.26756       -0.05108
N          2.53733        2.48551       -0.07662
H          2.79431       -3.20475        0.14687
H          4.09767       -2.04900        0.11678
H          0.77902       -2.76198       -0.00913
H         -4.62714       -1.91804       -0.13026
H         -3.47113       -3.21737       -0.09629
H         -5.11298        0.39277        0.10622
H         -1.86299        3.16501       -0.00899
H          0.15940        2.41201       -0.05926
H          3.54242        2.51618        0.06192
H          2.00270        3.33043        0.09083
