27
Coordinates from ORCA-job ./opt_b97-3c_parallel
N          2.85059        3.08353       -0.32288
C          2.31226        2.11106       -0.05532
C          1.84230        1.10109       -0.03353
C          2.84622        0.16265        0.09250
N          3.89704       -0.17012        0.26745
N          2.97547       -1.22136        0.08205
C          1.77891       -1.90479       -0.08398
N          1.88819       -3.00106       -0.11385
N          0.55168       -1.51568       -0.19244
C         -0.19314       -0.44316       -0.15656
C          0.35326        0.85812       -0.12390
N         -0.44224        1.97382       -0.15107
C         -1.79039        1.86049       -0.24309
C         -2.38861        0.61520       -0.38983
C         -3.70352        0.16781       -0.04471
N         -4.63489        0.68043        0.23929
N         -3.11308       -0.77792        0.07751
C         -2.35672       -1.58014        0.27474
C         -1.62605       -0.55493       -0.26363
H          4.02552        0.83913        0.34378
H          4.81111       -0.57486        0.47294
H          2.84668       -3.34783       -0.13700
H          1.29028       -3.79860       -0.32675
H         -2.37237        2.77619       -0.14675
H         -5.56407        0.27673        0.34087
H         -4.76093        1.68815        0.16050
H         -2.71775       -2.51339        0.73342
