25
Coordinates from ORCA-job ./opt_b97-3c_parallel
N          0.60343       -3.86979       -0.00499
C          0.28781       -2.77081       -0.00466
C         -0.13268       -1.38289       -0.00400
C         -1.50549       -1.08437       -0.00384
N         -2.46987       -2.05999       -0.00564
C         -1.87543        0.25644       -0.00231
C         -3.18544        0.82295       -0.00144
N         -2.49231        1.71507       -0.00065
C         -1.67240        2.49153       -0.00045
C         -0.95891        1.25189       -0.00164
C          0.42201        1.00551       -0.00241
C          1.29355        2.11332       -0.00251
C          2.69432        2.14083       -0.00329
C          3.56741        1.05370       -0.00375
C          3.17840       -0.32389       -0.00327
N          2.13821       -0.66075       -0.00344
C          0.83177       -0.34668       -0.00324
H         -2.20134       -3.03879       -0.00276
H         -3.45178       -1.80925       -0.00118
H         -4.14489        0.32026       -0.00177
H         -1.30350        3.50962        0.00429
H          0.84038        3.09949       -0.00210
H          3.15611        3.12518       -0.00355
H          4.64243        1.21629       -0.00434
H          3.80763       -1.20585        0.00340
