23
Coordinates from ORCA-job ./opt_b97-3c_parallel
N          4.63661        1.61606        0.06436
C          3.69323        0.97299        0.01676
C          2.54815        0.12213       -0.03542
C          2.36008       -1.24654       -0.05446
N          3.02368       -2.13222       -0.03936
N          1.08766       -1.70018       -0.08674
C          0.37261       -0.51600       -0.08917
C          1.21364        0.61145       -0.06105
N          0.76758        1.91944       -0.03890
C         -0.62015        2.07141       -0.03511
C         -1.48300        0.98375       -0.03754
C         -2.85827        1.36759        0.00630
N         -4.06027        0.69615        0.06201
C         -4.12050       -0.64400        0.06438
N         -3.18467       -1.66187       -0.01292
C         -1.81279       -1.53135       -0.08244
C         -1.04520       -0.32273       -0.07123
H          2.96216       -3.14940        0.00219
H          4.01697       -1.90849        0.03912
H         -0.81368        3.15551       -0.01211
H         -3.40559        2.32209        0.03727
H         -5.16808       -0.97763        0.12610
H         -1.85776       -2.63061       -0.10541
