29
Coordinates from ORCA-job ./opt_b97-3c_parallel
N         -4.71592       -0.94014       -0.28222
C         -3.71416       -0.39541       -0.20933
C         -2.44137        0.28289       -0.12913
C         -2.64691        1.69599       -0.31240
N         -2.11211        2.61958       -0.03326
C         -1.09308        2.63693        0.38948
C          0.05792        1.77347        0.32042
C          1.21199        2.55438        0.69522
N          2.11263        3.18610        1.00742
C          0.03038        0.37627        0.12885
C         -1.18712       -0.34049        0.03523
C         -1.15295       -1.72963        0.19025
C          0.03807       -2.39962        0.41777
N          0.02892       -3.74393        0.65958
C          1.31101       -1.74658        0.29667
C          2.62049       -2.29191        0.08037
C          3.37025       -1.19650       -0.45881
C          2.60592        0.01965       -0.46109
N          3.32028        0.98857       -1.10624
C          1.30737       -0.32764        0.05476
H         -3.45302        2.20133       -0.83382
H         -1.13068        3.72072        0.34285
H         -2.07006       -2.31370        0.19904
H          0.90395       -4.25586        0.63613
H         -0.83895       -4.25989        0.56508
H          2.92874       -3.31732       -0.10661
H          4.38261       -1.29374       -0.84064
H          2.97475        1.94165       -1.06026
H          4.32109        0.86153       -1.20569
