33
Coordinates from ORCA-job ./opt_b97-3c_parallel
N         -2.83405        3.82890       -0.02912
C         -2.45563        2.75053       -0.00165
C         -1.96337        1.39430        0.04490
C         -0.58399        1.18775       -0.07069
C          0.10218       -0.04621       -0.02774
C         -0.55332       -1.29869        0.04631
C          0.19594       -2.47790        0.22148
N         -0.40257       -3.69899        0.37974
C          1.58551       -2.42916        0.24527
C          2.23160       -1.21146        0.09039
C          3.65964       -1.11679        0.09436
C          3.48574        0.31341        0.01880
N          4.78415        0.73106        0.14313
C          2.32185        1.14894       -0.17623
C          2.51063        2.30475       -1.00275
N          2.40222        3.43924       -0.92789
C          1.51298       -0.03511       -0.04093
C         -1.99121       -1.39240       -0.09673
N         -2.59604       -2.18297       -1.03937
N         -2.88402       -0.77834        0.12087
C         -2.90366        0.31913        0.25490
N         -4.20977        0.49142        0.62708
H         -0.00145        2.09813       -0.15632
H         -1.40070       -3.72277        0.56212
H          0.15825       -4.47602        0.71121
H          2.16597       -3.34053        0.37151
H          4.30726       -1.65924        0.77848
H          4.99601        1.70183       -0.06309
H          5.52795        0.05150        0.02860
H         -3.60820       -2.23137       -1.07608
H         -2.07150       -2.94859       -1.44830
H         -4.59770        1.42811        0.65622
H         -4.85635       -0.28491        0.54418
