30
Coordinates from ORCA-job ./opt_b97-3c_parallel
N         -3.81852        1.96596        0.02259
C         -2.78966        1.06469        0.03670
C         -3.15266       -0.27193        0.06641
C         -2.32769       -1.38760        0.07465
N         -2.97303       -2.59440        0.09809
C         -0.93496       -1.43694        0.05514
C          0.02982       -0.41338        0.02390
C         -0.25057        0.97681        0.01285
C         -1.50605        1.59886        0.01803
C          0.80314        1.90762       -0.00609
C          2.13676        1.53273       -0.02388
N          3.13445        2.46373       -0.02981
C          2.47698        0.15094       -0.03852
C          3.62824       -0.72174       -0.07067
C          3.26348       -2.04984       -0.04515
C          1.89446       -2.11327       -0.00108
C          1.39217       -0.81140       -0.00011
H         -4.75704        1.62792       -0.15996
H         -3.61240        2.93428       -0.19615
H         -4.22307       -0.47211        0.08538
H         -3.97141       -2.61417       -0.07829
H         -2.44006       -3.43569       -0.09217
H         -0.57027       -2.45452        0.06780
H         -1.49342        2.68780        0.00287
H          0.58814        2.97507       -0.00628
H          4.08352        2.15083        0.14190
H          2.90370        3.42688        0.18620
H          4.67772       -0.44134       -0.11267
H          3.94303       -2.89825       -0.06176
H          1.34443       -3.04801        0.02211
