31
Coordinates from ORCA-job ./opt_b97-3c_parallel
N         -6.15356        0.20023       -0.02529
C         -5.02127        0.04272       -0.01692
C         -3.58799       -0.13965        0.00701
C         -3.23745       -1.48787        0.36983
N         -2.34058       -2.12556        0.28791
C         -1.37541       -1.75220       -0.09158
C         -0.61335       -0.52840       -0.04524
C         -1.25183        0.73122       -0.11866
C         -0.43394        1.87413       -0.10346
C          0.95221        1.78926       -0.00888
C          1.70002        3.02140        0.05471
N          2.27897        4.00479        0.11788
C          1.56819        0.53539        0.04478
C          2.99392        0.35278        0.11454
C          4.21473        1.09642        0.00739
N          5.25108        1.52127        0.23272
C          2.69766       -1.06148        0.04516
N          3.84991       -1.78621       -0.12859
C          1.49620       -1.86470        0.10144
C          1.34795       -3.25894        0.40106
N          1.29103       -4.25223       -0.16104
C          0.78771       -0.61201        0.03120
C         -2.65976        0.89882       -0.19326
N         -3.17522        2.14408       -0.46224
H         -3.83688       -2.22101        0.89873
H         -1.21623       -2.62655       -0.71466
H         -0.86803        2.87073       -0.13120
H          4.74264       -1.32101        0.00514
H          3.81703       -2.79466       -0.02182
H         -2.55954        2.84310       -0.86226
H         -4.16295        2.21305       -0.68591
