28
Coordinates from ORCA-job ./opt_b97-3c_parallel
N          4.24051       -2.79026       -0.56290
C          3.48728       -1.94373       -0.41246
C          2.52503       -0.88825       -0.20872
C          1.16376       -1.20219       -0.28321
C          0.09810       -0.30107       -0.11176
C          0.24037        1.09435        0.03995
C         -0.90272        1.88279        0.25123
N         -2.16395        1.39187        0.29562
C         -2.29233        0.06198        0.11932
C         -3.58171       -0.59838        0.13760
C         -4.95813       -0.35848        0.43221
N         -6.06725       -0.10293        0.32824
C         -3.09238       -1.95187       -0.08201
C         -1.71645       -2.04607       -0.20582
C         -1.21681       -0.77544       -0.08023
C          1.52364        1.74895       -0.05115
N          1.70922        2.94461       -0.69009
N          2.57805        1.45311        0.10216
C          3.00403        0.43236        0.12764
N          4.17280        0.67256        0.79807
H          0.92383       -2.24623       -0.46554
H         -0.82276        2.96041        0.38126
H         -3.70631       -2.84704       -0.15047
H         -1.15486       -2.96190       -0.37036
H          0.90882        3.50300       -0.96514
H          2.62286        3.38421       -0.68592
H          4.49912        1.62610        0.90688
H          4.85084       -0.07484        0.89998
