29
Coordinates from ORCA-job ./opt_b97-3c_parallel
N         -3.29910        3.38676        0.43895
C         -2.74056        2.39736        0.31373
C         -2.02241        1.15767        0.14215
C         -0.62465        1.18702        0.19853
C          0.23539        0.08581        0.04383
C         -0.18197       -1.25650       -0.09516
C          0.76803       -2.27128       -0.30353
C          2.13418       -1.98614       -0.34723
C          2.54523       -0.67142       -0.17105
N          3.80779       -0.19200       -0.16594
C          3.71777        0.91859        0.00350
N          4.81999        1.71637        0.08742
C          2.39266        1.47574        0.14236
C          1.61410        0.30585        0.01707
C         -1.57235       -1.63126        0.00466
N         -1.99920       -2.74911        0.66830
N         -2.55359       -1.13764       -0.11948
C         -2.76451       -0.05197       -0.12863
N         -4.04798       -0.08073       -0.60374
H         -0.17068        2.16335        0.34939
H          0.44352       -3.30180       -0.42694
H          2.86164       -2.77870       -0.50621
H          4.72537        2.67841        0.39224
H          5.74023        1.29221        0.12232
H          2.11360        2.50932        0.31886
H         -2.98658       -2.97836        0.69037
H         -1.33288       -3.46289        0.93981
H         -4.54564       -0.96306       -0.64425
H         -4.59380        0.77381       -0.61971
