30
Coordinates from ORCA-job ./opt_b97-3c_parallel
N         -5.45765       -2.01177       -0.02310
C         -4.54493       -1.32614       -0.00237
C         -3.38202       -0.49470        0.00135
C         -2.22921       -1.26158       -0.00100
C         -0.96868       -0.60954       -0.00189
C         -0.56229        0.68464        0.00015
C         -1.23965        1.94424        0.00505
N         -1.11753        3.04446        0.00898
H         -0.22518        3.54218        0.01193
H         -1.82007        3.78743        0.01327
N         -2.58893        1.94628        0.00755
C         -3.51940        0.95427        0.00577
H         -4.55091        1.34234        0.00745
C          0.80936        0.24140       -0.00190
C          0.39434       -1.04899       -0.00329
C          1.03561       -2.31766       -0.00268
C          2.41986       -2.38689       -0.00097
N          2.99864       -3.33225        0.00181
H          2.44216       -4.18979       -0.00775
H          3.96550       -3.66332        0.02174
N          3.38027       -1.35683       -0.00263
C          3.26773        0.04809       -0.00416
N          4.35522        0.27022       -0.00596
H          4.48487        1.28451       -0.03798
H          5.30788       -0.10019        0.02027
C          2.07921        0.88351       -0.00184
C          2.15472        2.30891       -0.00121
N          2.15759        3.45018       -0.00066
H          0.42063       -3.21542       -0.00209
H         -2.26189       -2.34974       -0.00388
