27
Coordinates from ORCA-job ./opt_b97-3c_parallel
N          5.14072        1.23199        0.03211
C          4.16098        0.64280        0.02977
C          2.91035       -0.06117        0.01670
C          1.75735        0.72967        0.02975
N          1.61699        1.82863        0.05338
H          0.97765        2.62000        0.00971
H          2.55846        2.21870        0.01978
C          0.43733        0.14917       -0.00957
C         -0.06256       -1.10507       -0.05864
C          0.58360       -2.36661       -0.07396
C          1.93922       -2.42963       -0.00923
C          2.95456       -1.51169       -0.01339
H          3.96392       -1.91591       -0.02379
H          2.30522       -3.45279        0.04814
H         -0.02683       -3.26352       -0.11356
C         -1.36535       -0.69232       -0.08193
C         -0.90828        0.67432       -0.02659
N         -1.49311        1.92795       -0.00383
C         -2.84492        1.97449       -0.00017
N         -3.81684        0.96701        0.00360
C         -3.44050       -0.36469       -0.05726
N         -4.52445       -0.59217       -0.02890
H         -4.71855       -1.59292       -0.02389
H         -5.43941       -0.14039       -0.00929
C         -2.53421       -1.38332       -0.14307
H         -2.65494       -2.31707        0.40419
H         -2.88381        3.07469        0.03009
