33
Coordinates from ORCA-job ./opt_b97-3c_parallel
N         -5.29915       -1.87083       -0.07829
C         -4.16289       -1.75899       -0.02917
C         -3.06725       -0.83881        0.00381
C         -1.85792       -1.50757        0.00737
C         -0.65012       -0.76262        0.04024
C         -0.32239        0.54274        0.05308
C         -1.13623        1.71419        0.05741
N         -1.18770        2.81771        0.06339
H         -0.19559        3.05235        0.00457
H         -1.66975        3.70946        0.17382
N         -2.52653        1.78262        0.04988
C         -3.28380        0.59915        0.02547
N         -4.11578        1.32629        0.02616
H         -4.74546        0.52579       -0.03597
H         -4.71365        2.15162        0.03650
C          1.02841        0.26577        0.02791
C          0.72970       -1.12993        0.02389
C          1.45063       -2.26463       -0.06777
C          2.81075       -2.26684        0.04844
N          3.22769       -3.28745        0.12138
H          4.23617       -3.43082        0.09550
H          2.81022       -4.21243        0.21168
C          3.77171       -1.17889        0.03702
C          3.50977        0.19390       -0.02546
N          4.46364        0.75643       -0.04946
H          4.60998        1.76457       -0.03773
H          5.37845        0.33697       -0.21018
C          2.24256        0.91189       -0.02221
C          2.12769        2.34193       -0.05526
N          1.79128        3.43315       -0.10938
H          4.81088       -1.51589        0.08253
H          0.90975       -3.19107       -0.26896
H         -1.78164       -2.59201       -0.01487
