30
Coordinates from ORCA-job ./opt_b97-3c_parallel
N          6.01090        1.33572       -0.00171
C          5.02102        0.76413        0.00004
C          3.76388        0.07930       -0.00035
C          2.54282        0.84283        0.00025
C          1.29746        0.15811        0.00051
C          0.89110       -1.13184       -0.00003
C          1.62419       -2.35322       -0.00091
C          3.00258       -2.34671       -0.00115
C          3.92030       -1.30585       -0.00090
H          4.94860       -1.66213       -0.00116
H          3.44865       -3.33669       -0.00159
H          1.09779       -3.30086       -0.00121
C         -0.45615       -0.80394        0.00040
C         -0.07017        0.56461        0.00114
C         -0.75941        1.80927        0.00243
C         -0.05770        3.05616        0.00378
N          0.52903        4.03579        0.00307
C         -2.13882        1.85451        0.00248
C         -3.03722        0.78584        0.00102
C         -4.34945        1.38711        0.00038
N         -5.40657        1.82262       -0.00060
C         -2.91788       -0.60981       -0.00007
N         -3.79663       -1.29077       -0.00118
H         -3.86795       -2.30755       -0.00191
H         -4.74954       -0.93008       -0.00190
C         -1.69587       -1.40234       -0.00033
C         -1.51323       -2.82926       -0.00095
N         -1.72750       -3.95194       -0.00157
H         -2.54811        2.86627        0.00361
H          2.57784        1.92731        0.00058
