26
Coordinates from ORCA-job ./opt_b97-3c_parallel
N         -0.90701       -3.97287       -0.00692
C         -1.22296       -2.87526       -0.00510
C         -1.56677       -1.48998        0.00532
C         -0.54763       -0.55610        0.01960
C         -0.49502        0.81983        0.02498
N         -1.42190        1.84798       -0.00601
C         -2.72748        1.39023       -0.00526
N         -3.14053        2.41670       -0.05889
H         -3.02110        3.43054       -0.05363
H         -4.14784        2.27825       -0.15637
C         -3.41554        0.21064        0.04384
C         -2.94950       -1.07552        0.00973
H         -3.67641       -1.88378       -0.00098
H         -4.49813        0.29072        0.14053
C          0.93101        0.76910        0.02645
C          0.83379       -0.65432        0.01774
C          1.81132       -1.62460        0.00114
N          3.14517       -1.44703       -0.01205
C          3.51160       -0.11348       -0.00268
N          3.32729        1.26012        0.01324
C          2.01364        1.72582        0.02965
N          2.13380        2.82638        0.04413
H          1.47889        3.60790        0.07345
H          3.05629        3.26006        0.11657
H          4.58658       -0.36353       -0.02082
H          1.87656       -2.72504       -0.01242
