34
Coordinates from ORCA-job ./opt_b97-3c_parallel
N         -5.13560       -2.22470       -0.32694
C         -4.32289       -1.43218       -0.19735
C         -3.27325       -0.47124       -0.01631
C         -2.05701       -1.12297        0.14865
C         -0.83573       -0.37498        0.14490
C         -0.50023        0.93701        0.04712
C         -1.29234        2.11824        0.01615
N         -0.86929        3.13150       -0.08947
H         -0.12091        3.80991        0.04301
H         -1.71221        3.68013       -0.25969
C         -2.62144        1.98195        0.30122
C         -3.48169        0.97056       -0.06178
N         -4.45849        1.44591       -0.27343
H         -5.17705        0.72629       -0.20167
H         -4.94571        2.33995       -0.24672
H         -2.99605        2.68075        1.05619
C          0.89945        0.60208        0.00937
C          0.55446       -0.70753        0.10874
C          1.30813       -1.91174        0.11968
C          0.59401       -3.15106        0.20312
N          0.90851       -4.22022       -0.05114
C          2.69370       -1.84988        0.05227
N          3.57409       -0.74899       -0.02387
C          3.32895        0.59452       -0.07465
N          4.42753        0.74814       -0.11201
H          5.44369        0.65430       -0.07400
H          4.26711        1.75903       -0.14434
C          2.06406        1.30670       -0.07804
C          2.20531        2.73156       -0.16028
N          3.01318        3.53236       -0.05385
N          3.54084       -2.56678        0.04167
H          4.47157       -2.97545        0.14160
H          2.91774       -3.37425       -0.05377
H         -2.00397       -2.20809        0.17604
