33
Coordinates from ORCA-job ./opt_b97-3c_parallel
N         -5.32911       -1.52019        0.17441
C         -4.35759       -0.92314        0.12066
C         -3.15991       -0.13152        0.06020
C         -3.38760        1.30318        0.01619
N         -2.54958        2.36651       -0.05280
C         -1.21033        2.46099       -0.08053
N         -1.00142        3.54237       -0.14408
H         -0.06493        3.73087       -0.50023
H         -1.50837        4.42491       -0.20393
C         -0.44154        1.27014       -0.02578
C          0.95356        1.00504       -0.01638
C          0.72462       -0.33774        0.02182
C          1.58901       -1.49843        0.03346
C          1.05152       -2.82957        0.04806
N          0.72705       -3.85246       -0.34726
C          2.98801       -1.38782        0.00604
N          3.74241       -2.20230       -0.01614
H          3.34151       -3.13294       -0.12652
H          4.73102       -2.28708       -0.24704
C          3.77734       -0.15422        0.00293
C          3.30296        1.12921        0.03585
N          4.27426        2.05623        0.10819
H          4.09882        2.96629        0.52960
H          5.22693        1.78255        0.34656
C          2.12402        1.79885       -0.02115
H          2.02932        2.88209       -0.04050
H          4.86580       -0.26540       -0.01922
C         -0.70516       -0.06165        0.02088
C         -1.93366       -0.80225        0.05420
N         -1.78372       -1.89485        0.08860
H         -1.07147       -2.61621       -0.01598
H         -2.66899       -2.39892        0.13772
H         -4.40766        1.71778        0.02822
