25
Coordinates from ORCA-job ./opt_b97-3c_parallel
N         -1.21696       -2.88767       -0.18148
C         -1.52647       -1.59883        0.02561
C         -0.50113       -0.71958        0.02710
C         -0.42011        0.68201        0.01624
C          0.96169        0.70528        0.01820
N          1.90543        1.58942        0.01081
C          3.15082        1.22302        0.00567
C          3.84722        0.04806        0.01053
C          3.16473       -1.13447        0.02274
N          1.88553       -1.66121        0.03210
C          0.91701       -0.67531        0.02872
H          3.79589       -2.03627        0.02380
H          4.93526        0.05211        0.00137
H          3.87633        2.05087        0.00606
C         -1.45093        1.58092        0.00543
N         -1.38804        2.68286       -0.00238
H         -0.40799        2.97029       -0.00068
H         -1.93722        3.54133        0.00328
N         -2.78448        1.38111        0.00287
C         -3.39900        0.11806        0.01221
C         -2.83875       -1.22106        0.02521
H         -3.59191       -2.00450        0.03200
H         -4.49832        0.05803        0.01041
H         -1.86986       -3.62948        0.06978
H         -0.27214       -3.22709        0.00132
