30
Coordinates from ORCA-job ./opt_b97-3c_parallel
N          5.33823       -0.17289        0.04879
C          4.20484       -0.02928        0.03098
C          2.77369        0.08579        0.00784
C          2.21684       -1.19384       -0.03195
N          0.96927       -1.71332       -0.03353
C         -0.08201       -0.81884        0.00688
C         -0.17328        0.59355        0.00885
C          0.72617        1.60351       -0.02103
C          2.07448        1.36317        0.03009
N          2.61513        2.32825        0.07955
H          3.63248        2.39603        0.06745
H          2.27031        3.27636        0.22665
H          0.33191        2.62194       -0.06553
C         -1.60035        0.44182        0.00785
C         -1.50310       -0.96615        0.01444
C         -2.41106       -1.96059       -0.02184
C         -3.75398       -1.74503        0.05815
C         -4.49618       -0.50031        0.06080
C         -4.04055        0.81495        0.00945
C         -2.67258        1.29346       -0.01991
N         -2.50046        2.38305       -0.05247
H         -1.79896        3.09950       -0.22786
H         -3.40480        2.83566       -0.17686
H         -4.81515        1.57874        0.00724
H         -5.57184       -0.64349        0.10572
H         -4.39109       -2.62323        0.10879
H         -2.05661       -2.98744       -0.07134
N          2.40962       -2.28794       -0.05883
H          3.42280       -2.17226       -0.01117
H          2.25390       -3.29288       -0.13931
