30
Coordinates from ORCA-job ./opt_b97-3c_parallel
N          3.65888        2.21137       -0.08420
C          3.13209        1.23212       -0.02286
N          1.80887        1.67954       -0.01210
C          0.82151        0.69016        0.01051
C          0.82821       -0.69629        0.00731
N          1.78336       -1.65744        0.02114
C          3.09463       -1.17315        0.02945
N          3.61065       -2.15900        0.08849
H          3.42042       -3.16617        0.05356
H          4.62956       -2.14395        0.21451
C          3.77919        0.01966        0.00543
H          4.87143        0.00422        0.00516
C         -0.56506       -0.70815        0.00082
C         -0.61895        0.72278        0.01537
C         -1.64106        1.66634        0.03191
N         -1.67423        2.78186        0.05722
H         -2.50967        3.37948        0.09287
H         -0.92776        3.48433        0.08181
N         -2.96973        1.39317        0.03261
C         -3.29919        0.03472        0.00814
N         -4.41128        0.01629        0.01082
H         -5.05918        0.81154        0.02169
H         -5.04912       -0.78615        0.00642
N         -2.96401       -1.32234       -0.01877
C         -1.61448       -1.71825       -0.02305
N         -1.66162       -2.83179       -0.05205
H         -0.92949       -3.54958       -0.06948
H         -2.51095       -3.40775       -0.10472
H          4.67935        2.19710       -0.19679
H          3.46363        3.21807       -0.06593
