26
Coordinates from ORCA-job ./opt_b97-3c_parallel
N          4.20638        0.71774        0.04001
C          3.19130        0.28380        0.02680
N          2.53193        1.50894        0.17836
C          1.16032        1.74240        0.07923
C          0.24146        0.79686       -0.30001
C          0.30755       -0.55362       -0.44287
C         -1.12872       -0.61058       -0.50874
C         -1.12141        0.82307       -0.42131
C         -2.02836        1.75035        0.00304
C         -3.28030        1.24155        0.18686
N         -4.05932        0.10310        0.25678
C         -3.31072       -1.04350        0.07380
C         -2.06345       -1.54302       -0.16518
H         -1.93213       -2.58866       -0.43139
H         -4.22680       -1.64400        0.18043
H         -4.24574        1.74475        0.34896
H         -1.89610        2.80440       -0.22916
C          1.29306       -1.36380        0.01223
N          1.00834       -2.67171        0.12090
H          1.62612       -3.30724        0.62405
H          0.04875       -2.98172        0.27040
C          2.61294       -1.03787       -0.08860
H          3.33911       -1.83709       -0.21483
H          0.78004        2.76505        0.22596
H          4.93997        0.02755       -0.11709
H          4.68018        1.61605        0.12975
