30
Coordinates from ORCA-job ./opt_b97-3c_parallel
N         -5.77511       -0.97415       -0.17994
C         -4.75057       -0.51452        0.03292
C         -3.44419        0.06378        0.02350
C         -2.34091       -0.77764        0.02009
C         -1.03335       -0.17609        0.01288
C         -0.58980        1.10915        0.00807
C         -1.32807        2.34297        0.00820
N         -2.43582        2.24640        0.01289
C         -3.25839        1.49686        0.01901
H         -4.18345        2.09329        0.02279
H         -0.94168        3.37361        0.00497
C          0.73784        0.73851        0.00589
C          0.32862       -0.62809        0.01090
C          0.99816       -1.82199        0.01384
C          0.07886       -2.92585        0.01798
N         -0.41994       -3.95436        0.00423
C          2.37948       -1.93656        0.01335
N          2.89328       -2.91965        0.01578
H          2.31726       -3.76048        0.02856
H          3.85351       -3.22502       -0.13075
C          3.37496       -0.86847        0.01112
C          3.19358        0.51701        0.00604
N          4.16766        1.04431        0.00484
H          4.17287        2.06348        0.01128
H          5.14133        0.74676        0.01997
C          1.98146        1.31415        0.00257
C          1.88040        2.74667       -0.00281
N          2.14640        3.85718       -0.05240
H          4.40923       -1.23013        0.01355
H         -2.43487       -1.85833        0.02357
