29
Coordinates from ORCA-job ./opt_b97-3c_parallel
N         -4.34736       -3.23063        0.00084
C         -3.53617       -2.42557        0.00063
C         -2.55236       -1.38716        0.00042
C         -1.27167       -1.89509       -0.00061
C         -0.17875       -1.08850       -0.00064
C          0.09381        0.23468       -0.00033
C         -0.78577        1.37076        0.00033
N         -0.18698        2.30171        0.00002
H          0.74654        2.70871       -0.00029
H         -0.83649        3.08627       -0.00039
C         -2.17592        1.22172        0.00117
C         -2.93206        2.44500        0.00214
N         -3.56082        3.39952        0.00318
C         -2.96939        0.00123        0.00142
H         -4.04629        0.14988        0.00233
C          1.45974        0.01706       -0.00059
C          1.22157       -1.38171       -0.00128
C          2.00540       -2.47805       -0.00109
C          3.36451       -2.44244       -0.00128
C          4.25100       -1.30068       -0.00131
C          3.95239        0.05833       -0.00099
C          2.64957        0.70662       -0.00067
C          2.88107        2.11871       -0.00011
N          2.95246        3.25985       -0.00056
H          4.82438        0.70966       -0.00103
H          5.30193       -1.57316       -0.00154
H          3.88441       -3.39564       -0.00127
H          1.52143       -3.45139       -0.00152
H         -1.11156       -2.97071       -0.00126
