28
Coordinates from ORCA-job ./opt_b97-3c_parallel
N          0.89991        4.13273        0.00028
C          1.28305        3.05696        0.00001
C          1.67574        1.68433       -0.00003
C          0.70790        0.70046       -0.00104
C          0.76272       -0.67409       -0.00092
C         -0.66477       -0.71083       -0.00112
C         -0.67565        0.71921       -0.00089
C         -1.71899        1.63125       -0.00085
N         -1.91917        2.72272       -0.00081
H         -2.61848        3.46971        0.00230
H         -1.02891        3.23050       -0.00290
N         -3.03790        1.34599       -0.00092
C         -3.30093       -0.01753       -0.00071
N         -3.01653       -1.37671       -0.00065
C         -1.67207       -1.74826       -0.00106
N         -1.85955       -2.83939       -0.00082
H         -2.52513       -3.61549       -0.00148
H         -0.94634       -3.30458        0.00008
H         -4.40369       -0.02759       -0.00028
C          1.71773       -1.66369       -0.00077
C          1.62905       -3.09245       -0.00145
N          0.92286       -3.98969       -0.00256
C          3.09364       -1.24178        0.00011
C          3.56788        0.03997       -0.00027
C          3.06670        1.31252        0.00077
H          3.77012        2.14129        0.00130
H          4.65636        0.05244       -0.00192
H          3.84960       -2.02513        0.00047
