31
Coordinates from ORCA-job ./opt_b97-3c_parallel
N         -3.43567       -4.17856       -0.00026
C         -3.00523       -3.12025       -0.00387
C         -2.41086       -1.81913       -0.00278
C         -0.97557       -1.92374       -0.00211
C         -0.21499       -0.72189       -0.00214
C         -0.48719        0.60871       -0.00167
C         -1.70528        1.35964       -0.00040
N         -1.59481        2.45809        0.00113
H         -0.91287        3.21288        0.00182
H         -2.50795        2.91530        0.00159
C         -2.91758        0.67597       -0.00082
C         -4.17793        1.37230        0.00039
N         -5.02048        2.14460        0.00058
C         -3.21774       -0.68877       -0.00209
H         -4.27662       -0.95140       -0.00217
C          0.93525        0.88874       -0.00077
C          1.18689       -0.44512       -0.00088
C          2.35428       -1.25699        0.00073
C          2.18363       -2.67545       -0.00075
N          2.52808       -3.76654        0.00187
C          3.61417       -0.68704        0.00225
N          3.97779        0.66492        0.00350
C          3.20459        1.83591        0.00249
C          1.77526        2.04642        0.00059
C          1.28387        3.38688        0.00031
N          0.93243        4.47317        0.00089
H          3.80614        2.75947        0.00353
N          4.64841       -1.08489        0.00440
H          5.64669       -0.87747        0.00506
H          4.58411       -2.10564        0.00437
H         -0.48689       -2.89331       -0.00191
