32
Coordinates from ORCA-job ./opt_b97-3c_parallel
N          5.72275        1.22796        0.05941
C          4.59097        1.06814        0.01885
C          3.16618        0.84617       -0.00004
C          2.38171        2.06584        0.01502
C          1.03518        2.23932       -0.01384
C          0.13499        1.24103        0.01000
C          0.23392       -0.17838       -0.00970
C          1.33118       -1.01648       -0.04168
C          0.90688       -2.39213       -0.07540
N          0.97021       -3.53335       -0.10402
C          2.70343       -0.48748       -0.03396
N          3.41083       -1.34794       -0.05085
H          3.26848       -2.35446        0.02239
H          4.41731       -1.19263       -0.02456
C         -1.20926       -0.27197        0.00600
C         -1.28914        1.13315        0.02128
C         -2.34641        2.09471        0.01675
C         -3.67980        1.73147       -0.00804
C         -4.15480        0.35743       -0.01024
N         -5.26058        0.38551       -0.04528
H         -5.88428        1.18599       -0.12706
H         -5.84515       -0.44647       -0.09521
C         -3.55637       -0.88085        0.04412
C         -2.23983       -1.26320        0.00277
N         -2.10053       -2.35776       -0.01122
H         -2.79544       -3.09726        0.06780
H         -1.19078       -2.80787        0.05610
H         -4.27137       -1.70585        0.14887
H         -4.40433        2.54500       -0.03111
H         -2.06021        3.14135        0.01651
H          0.65770        3.25888       -0.03047
H          2.97459        2.97615        0.04310
