36
Coordinates from ORCA-job ./opt_b97-3c_parallel
N         -6.05847       -1.22925        0.20896
C         -4.93809       -1.00973        0.15699
C         -3.51982       -0.75808        0.05592
C         -2.61628       -1.90605        0.08934
N         -2.93726       -2.95827        0.23542
H         -3.95449       -3.02536        0.23513
H         -2.58850       -3.89414        0.43429
C         -1.26451       -1.98641       -0.11674
C         -0.45975       -0.90891       -0.01128
C         -0.69281        0.49396        0.00646
C         -1.85173        1.24316       -0.05574
C         -1.44630        2.62581       -0.10585
N         -1.24439        3.72893       -0.32640
C         -3.17666        0.60784       -0.05921
N         -3.88861        1.46189       -0.11229
H         -4.87110        1.18933       -0.12503
H         -3.87495        2.47760       -0.19308
C          0.72925        0.72968        0.04739
C          0.95447       -0.65556        0.01402
C          2.13407       -1.45925       -0.03239
N          1.89824       -2.53789       -0.09785
H          2.62592       -3.25240       -0.10698
H          1.06884       -2.97687       -0.49611
C          3.37817       -0.85210        0.01205
C          4.58704       -1.63155       -0.00797
N          5.71651       -1.62650       -0.18586
C          3.64840        0.57835        0.08607
N          2.93236        1.78556        0.11239
C          1.58203        1.87616        0.08212
N          1.81768        2.95367        0.10941
H          2.18768        3.88979        0.26947
H          0.81138        3.07013       -0.00802
N          4.50920        1.27796        0.13604
H          5.25621        0.58364        0.06564
H          4.97776        2.17582        0.25641
H         -0.78530       -2.92725       -0.40478
