25
Coordinates from ORCA-job ./opt_b97-3c_parallel
N          5.44445        0.43577       -0.02622
C          4.30188        0.42965       -0.02473
C          2.87199        0.37857       -0.02281
C          2.23374        1.60952       -0.03932
N          0.93547        1.98562       -0.03626
C          0.00833        0.96037       -0.01722
C          0.11075       -0.48788       -0.00561
N          1.03689       -1.09947       -0.00496
C          2.12067       -0.85635       -0.00413
N          2.43583       -1.92012        0.01471
H          2.42156       -2.93035        0.13888
H          3.41874       -1.65227        0.00012
C         -1.33260       -0.44692        0.00047
C         -1.40541        0.95847       -0.00829
C         -2.42856        1.87698       -0.00878
N         -3.74443        1.59495        0.00589
C         -3.98597        0.23167        0.01591
N         -3.68690       -1.12303        0.01869
C         -2.33855       -1.47779        0.00751
N         -2.21724       -2.57510        0.00409
H         -2.76632       -3.41192       -0.19106
H         -1.23929       -2.86920        0.00298
H         -5.07650        0.38759        0.02998
H         -2.23799        2.96134       -0.01848
H          2.70566        2.60387       -0.05571
