31
Coordinates from ORCA-job ./opt_b97-3c_parallel
N         -1.32412       -3.67703       -0.19796
C         -1.41978       -2.54440       -0.07185
C         -1.56490       -1.11381        0.08289
C         -0.39061       -0.34723        0.25535
C         -0.40261        1.10628        0.52830
N         -1.06922        1.91972       -0.30977
C         -2.14042        1.85140       -0.05733
N         -2.45482        3.18027       -0.01718
H         -3.38429        3.47302        0.26285
H         -1.71571        3.87427       -0.02378
C         -3.13869        0.81708        0.02912
C         -2.86350       -0.55471        0.05662
N         -3.96060       -1.37698        0.00823
H         -4.86249       -0.97642       -0.22475
H         -3.81850       -2.36639       -0.16824
H         -4.16673        1.17281        0.00034
C          0.97746        0.67045        0.22502
C          0.99145       -0.78666        0.16747
C          2.08675       -1.67482        0.09817
N          1.86291       -3.02084        0.11745
H          2.62787       -3.65214       -0.09264
H          0.91323       -3.36444        0.01501
C          3.39618       -1.19234        0.02503
C          3.70216        0.21848        0.00282
N          3.01873        1.09757        0.02760
C          1.91763        1.26778        0.07878
N          2.10505        2.60850       -0.12989
H          1.30843        3.23567       -0.14596
H          3.03742        3.00211       -0.19670
H          4.67052        0.69726       -0.08024
H          4.23922       -1.87783       -0.02149
