33
Coordinates from ORCA-job ./opt_b97-3c_parallel
N         -4.42856       -3.74955       -0.00033
C         -3.80031       -2.79493       -0.00005
C         -2.96791       -1.63087        0.00007
C         -1.54529       -1.83669        0.00019
C         -0.66892       -0.72426       -0.00038
C         -0.84660        0.61998       -0.00050
C         -1.95321        1.42654       -0.00017
N         -1.79380        2.52080        0.00019
H         -2.64385        3.08495        0.00000
H         -1.02026        3.18190        0.00019
C         -3.25876        0.94702        0.00014
C         -4.47457        1.72073        0.00040
N         -5.28201        2.52993       -0.00047
C         -3.71158       -0.44789       -0.00016
H         -4.79362       -0.59275       -0.00052
C          0.59567        0.76263       -0.00050
C          0.75302       -0.58541       -0.00050
C          1.85021       -1.51261        0.00035
C          1.52842       -2.91631        0.00104
N          1.31048       -4.03838        0.00158
C          3.17125       -1.04349        0.00107
N          3.98684       -1.80314        0.00133
H          3.80895       -2.80682        0.00085
H          4.99908       -1.68823        0.00092
C          3.58610        0.36592       -0.00028
C          4.98562        0.72980        0.00091
N          6.12606        0.64380        0.00071
C          2.89798        1.56618       -0.00128
C          1.55312        1.81464       -0.00072
C          1.21892        3.20604        0.00039
N          0.91262        4.30748        0.00031
H          3.50350        2.47882        0.00064
H         -1.15415       -2.84661        0.00022
