25
Coordinates from ORCA-job ./opt_b97-3c_parallel
N          0.25152        3.91951        0.00483
C          0.72343        2.87949       -0.00072
C          1.18391        1.52689       -0.00088
C          0.27173        0.43562        0.00050
C          0.45524       -0.91426        0.00076
N          1.53355       -1.76481       -0.00280
C          2.81968       -1.23603       -0.00446
N          3.34912       -2.20513       -0.00783
H          3.11535       -3.19790       -0.02243
H          4.36771       -2.15961       -0.02152
C          3.24439        0.08961       -0.00225
C          2.54431        1.28833       -0.00063
H          3.17392        2.17540       -0.00018
H          4.32370        0.21858       -0.00289
C         -0.96223       -1.09254        0.00037
C         -1.09806        0.32618       -0.00010
C         -2.22630        1.21946       -0.00338
N         -3.52450        0.71811       -0.00625
C         -3.68396       -0.65627       -0.00532
C         -3.22785       -1.94211       -0.00277
C         -1.88622       -2.18503       -0.00154
H         -1.49091       -3.19572       -0.00132
H         -3.93351       -2.76986        0.00412
H         -4.77986       -0.55008       -0.00902
H         -2.41682        2.30369       -0.00539
