31
Coordinates from ORCA-job ./opt_b97-3c_parallel
N         -4.60247       -2.45688        0.01631
C         -3.66998       -1.79611        0.00968
C         -2.47372       -1.00088        0.00649
C         -1.17027       -1.63797       -0.00408
N         -0.92382       -2.71542       -0.00683
H         -0.27352       -3.47638        0.17922
H         -1.85535       -3.12954        0.00190
C         -0.01285       -0.80641       -0.00443
C          0.21563        0.52333        0.00909
C          1.66245        0.32297        0.00304
N          2.61060        1.20246        0.01343
C          3.67875        0.45889       -0.00089
N          4.30870        1.37252        0.03406
H          5.30731        1.19789        0.14055
H          4.20706        2.38747        0.07054
C          4.33302       -0.76442       -0.03085
C          3.61580       -2.02953       -0.05927
C          2.23465       -2.17081       -0.04877
C          1.38821       -1.01758       -0.01641
H          1.76950       -3.15154       -0.06901
H          4.22013       -2.93162       -0.08656
H          5.41987       -0.81814       -0.03439
C         -0.60456        1.61968        0.01886
N         -0.04379        2.57652        0.02174
H         -0.79722        3.26420       -0.01399
H          0.81765        3.11538       -0.02966
C         -1.99078        1.54720        0.01830
C         -2.88498        2.67511        0.02389
N         -3.10175        3.79348       -0.06794
C         -2.83344        0.35176        0.01300
H         -3.90680        0.55536        0.01563
