30
Coordinates from ORCA-job ./opt_b97-3c_parallel
N         -5.13319       -2.02819       -0.00022
C         -4.23342       -1.32387        0.00024
C         -3.13646       -0.40594        0.00058
C         -1.92613       -1.07896        0.00104
C         -0.71629       -0.33148        0.00192
C         -0.43497        0.99350        0.00197
C         -1.20319        2.19112        0.00108
N         -1.09441        3.28999        0.00049
H         -0.11944        3.59811       -0.00015
H         -1.64709        4.14641       -0.00007
N         -2.54686        2.09177        0.00029
C         -3.38922        1.02496        0.00027
H         -4.45585        1.29947       -0.00039
C          0.95714        0.68120        0.00208
C          0.69163       -0.65431        0.00188
C          1.46173       -1.79577        0.00095
C          0.70907       -3.01724        0.00033
N          0.13772       -4.00692       -0.00055
C          2.85433       -1.79554       -0.00022
N          3.52019       -2.68020       -0.00103
H          3.02455       -3.57083       -0.00233
H          4.51410       -2.90527       -0.00218
C          3.68692       -0.59543       -0.00015
C          3.35220        0.73527        0.00098
C          2.17130        1.41758        0.00119
C          2.14565        2.84555        0.00046
N          2.05691        3.98468       -0.00029
H          4.22939        1.38137        0.00166
H          4.76557       -0.76013       -0.00105
H         -1.88475       -2.16427        0.00114
