28
Coordinates from ORCA-job ./opt_b97-3c_parallel
N          5.63445        0.98982       -0.00403
C          4.51035        0.77746       -0.00246
C          3.11687        0.46992        0.00087
C          2.40321        1.65934        0.00731
N          1.11144        2.03719        0.01740
C          0.19126        1.02142        0.02150
C          0.27694       -0.38766        0.00993
C          1.31888       -1.27384       -0.00231
C          1.19267       -2.69868       -0.01138
N          0.59201       -3.67120        0.00111
C          2.64791       -0.90005       -0.00303
H          3.43402       -1.65336       -0.00831
C         -1.15106       -0.44911        0.01278
C         -1.24515        0.98131        0.02953
C         -2.28303        1.87340        0.04818
N         -1.94874        3.17042        0.12967
H         -2.60282        3.90801       -0.12995
H         -1.00164        3.48444       -0.08518
C         -3.54336        1.43405        0.01678
C         -3.81164        0.09179       -0.01729
N         -3.44731       -1.25042       -0.02739
C         -2.11110       -1.43889       -0.00536
N         -2.25021       -2.53488       -0.02046
H         -1.33650       -2.99224       -0.00618
H         -2.93138       -3.29299       -0.00598
H         -4.91261        0.06112       -0.03351
H         -4.36705        2.14742        0.04146
H          2.73426        2.71017        0.00827
