33
Coordinates from ORCA-job ./opt_b97-3c_parallel
N         -4.77560       -3.20143       -0.00124
C         -4.01121       -2.35121       -0.00080
C         -3.07828       -1.25342       -0.00071
C         -1.69637       -1.66634       -0.00106
C         -0.66153       -0.69878       -0.00100
C         -0.61304        0.65155       -0.00063
C         -1.55224        1.63975       -0.00041
C         -2.91959        1.38116       -0.00055
C         -3.47625        2.71635       -0.00049
N         -4.28938        3.52068       -0.00089
C         -3.58175        0.06379       -0.00056
N         -4.67567        0.26786       -0.00055
H         -5.22588        1.12603       -0.00127
H         -5.33972       -0.50446       -0.00122
H         -1.17942        2.66062       -0.00038
C          0.83809        0.59046       -0.00062
C          0.75934       -0.76479       -0.00118
C          1.71111       -1.82352       -0.00179
C          1.31407       -3.19724       -0.00263
N          1.00324       -4.29647        0.02689
C          3.06656       -1.54709       -0.00189
C          3.69475       -0.29336       -0.00126
C          5.09810       -0.64254       -0.00179
N          6.21532       -0.88484       -0.00181
C          3.21084        1.02570       -0.00053
N          3.97537        1.83438       -0.00016
H          4.98338        1.68521       -0.00023
H          3.83071        2.84297       -0.00062
C          1.88991        1.47425       -0.00039
C          1.44638        2.84466        0.00017
N          1.14385        3.94713        0.00064
H          3.68667       -2.44691       -0.00249
H         -1.44734       -2.72263       -0.00115
