30
Coordinates from ORCA-job ./opt_b97-3c_parallel
N          1.85745        3.77260       -0.03849
C          2.07598        2.65074       -0.02795
C          2.40229        1.26098       -0.01239
C          1.41650        0.20018       -0.00058
C          1.50738       -1.16847        0.01826
N          2.42874       -2.12879        0.02816
C          3.62871       -1.46564        0.01858
N          4.41504       -0.33644        0.00486
C          3.81479        0.92226       -0.00786
H          4.64945        1.63911       -0.01552
H          4.34420       -2.30174        0.02513
C          0.08112       -1.24603        0.01462
C         -0.03247        0.10555       -0.00474
C         -1.14850        1.01827       -0.01696
N         -0.86009        2.08368       -0.02502
H         -1.70874        2.64660       -0.02915
H         -0.08802        2.74517        0.02346
C         -2.53796        0.54517       -0.00175
C         -3.58165        1.54560        0.00661
N         -4.41687        2.32593       -0.01478
C         -2.92511       -0.87535        0.00782
N         -4.00125       -1.15710        0.03184
H         -4.53030       -2.02695        0.02928
H         -4.68384       -0.40296       -0.02638
C         -2.20995       -2.05965       -0.02452
C         -0.87016       -2.29571        0.01894
N         -0.47662       -3.32815        0.03761
H         -0.86558       -4.26197       -0.07536
H          0.53779       -3.42669        0.03973
H         -2.78837       -2.99030       -0.11350
