30
Coordinates from ORCA-job ./opt_b97-3c_parallel
N         -5.79335       -1.60112       -0.01432
C         -4.73054       -1.17788       -0.01851
C         -3.41359       -0.60687       -0.01796
C         -2.52649       -1.67529       -0.05413
N         -1.18905       -1.84380       -0.05309
C         -0.44952       -0.68572       -0.02959
C         -0.75001        0.70529       -0.01452
C         -1.88870        1.44018        0.00580
C         -3.11352        0.81863        0.02317
N         -3.94763        1.54683        0.06691
H         -4.10489        2.52978        0.27592
H         -4.86142        1.09431        0.10609
H         -1.80577        2.52669        0.07244
C          0.60761        0.96294        0.00301
C          0.94014       -0.36087       -0.00717
C          2.17972       -1.09772        0.00834
N          2.00755       -2.18936       -0.00684
H          2.78990       -2.83909       -0.03158
H          1.15084       -2.73569       -0.06409
C          3.37051       -0.37679        0.05238
C          4.66621       -0.99790        0.09017
N          5.48244       -1.79568        0.07501
C          3.31117        1.07146        0.06404
N          2.55198        1.89326        0.04075
C          1.45969        2.12511        0.01783
N          1.17988        3.19162       -0.00027
H          1.80153        3.98586       -0.13849
H          0.26104        3.47478       -0.33541
H          4.33909        1.46276        0.11714
H         -2.71889       -2.75763       -0.08537
