29
Coordinates from ORCA-job ./opt_b97-3c_parallel
N          6.05405        1.47190       -0.00097
C          4.94700        1.18810       -0.00086
C          3.57168        0.78887       -0.00034
C          2.77149        1.93714       -0.00104
C          1.33078        2.02102       -0.00129
C          0.56133        0.89623       -0.00065
C          0.84603       -0.48969        0.00026
C         -0.55549       -0.76980        0.00020
C         -0.84301        0.61053       -0.00082
C         -2.04211        1.38812       -0.00148
C         -3.29445        0.77870       -0.00125
C         -4.23088        1.87020       -0.00190
N         -5.25260        2.38351       -0.00203
C         -3.54243       -0.66110       -0.00050
N         -4.61262       -0.94813       -0.00040
H         -5.34498       -0.23952       -0.00069
H         -5.07986       -1.85264        0.00013
C         -2.73745       -1.78078        0.00022
C         -1.38462       -1.91907        0.00050
H         -0.91372       -2.89624        0.00110
H         -3.23727       -2.75296        0.00089
H         -1.90513        2.46801       -0.00207
C          2.00621       -1.20169        0.00080
C          1.99151       -2.63123        0.00169
N          1.92687       -3.77220        0.00115
C          3.26084       -0.63135        0.00043
H          4.13195       -1.28292        0.00054
H          0.86552        3.00170       -0.00209
H          3.25899        2.91037       -0.00177
