32
Coordinates from ORCA-job ./opt_b97-3c_parallel
N         -6.15639       -1.26030        0.03999
C         -5.06392       -0.92562        0.02499
C         -3.70637       -0.46724        0.01111
C         -2.89980       -1.59857        0.02737
N         -1.57837       -1.86507       -0.01508
C         -0.76554       -0.76678       -0.13954
C         -0.97157        0.63879       -0.14614
C         -2.03607        1.45869        0.01392
C         -3.30295        0.93178       -0.00856
N         -4.02420        1.77155       -0.03138
H         -4.19184        2.77604       -0.02554
H         -4.93525        1.33040        0.08855
H         -1.85236        2.50146        0.28249
C          0.39523        0.80171       -0.13290
C          0.64491       -0.52791       -0.13561
C          1.81727       -1.33913       -0.05632
N          1.56134       -2.41580       -0.05749
H          2.10882       -3.27549       -0.09325
H          0.58239       -2.70668       -0.04336
C          3.06277       -0.72779       -0.00355
C          4.27445       -1.49961        0.05305
N          5.41610       -1.43605        0.06815
C          3.35269        0.70424        0.01386
N          4.17786        1.44595        0.05413
H          4.89736        0.72007        0.05422
H          4.68136        2.32910        0.13801
N          2.65579        1.92332        0.00140
C          1.26600        1.92042       -0.05590
N          1.22118        3.02092       -0.02345
H          0.21823        3.09490       -0.18911
H          1.58638        3.97207       -0.05010
H         -3.04323       -2.68966        0.05832
