30
Coordinates from ORCA-job ./opt_b97-3c_parallel
N         -4.89123       -0.41145        0.08144
C         -3.55096       -0.32982        0.00315
C         -3.08751       -1.62287        0.01207
C         -1.69246       -1.97970        0.02095
C         -0.74643       -0.90315        0.00866
C         -0.87093        0.52496       -0.01840
C         -1.91906        1.39310       -0.03944
N         -1.63820        2.70523       -0.10058
H         -0.77362        3.07135        0.28928
H         -2.37200        3.38791        0.08872
C         -3.22737        1.00362        0.04616
H         -3.99494        1.76526        0.18048
C          0.56628        0.59164       -0.02200
N          1.49647        1.60099       -0.05198
C          2.75160        1.03966       -0.04087
N          3.34982        1.96958       -0.07374
H          4.35492        2.13414       -0.13454
H          2.92960        2.90068       -0.09683
N          3.61625       -0.04410       -0.01067
C          3.13415       -1.35994        0.02795
N          4.02120       -2.02230        0.05323
H          3.82962       -3.02296        0.13426
H          5.04079       -1.95362        0.05074
C          1.74216       -1.78096        0.03019
C          0.67406       -0.82329        0.00737
H          1.49655       -2.83924        0.05596
H         -1.37865       -3.01892        0.03208
H         -3.76979       -2.47216        0.01431
H         -5.47744        0.37397       -0.19820
H         -5.37759       -1.27052       -0.17092
