27
Coordinates from ORCA-job ./opt_b97-3c_parallel
N         -5.18922       -1.34492        0.00111
C         -4.07400       -1.09331        0.00113
C         -2.67804       -0.73301        0.00083
C         -1.98948       -1.95170        0.00006
C         -0.56584       -2.16323       -0.00105
C          0.30838       -1.11903       -0.00088
C          0.18196        0.29471        0.00019
C         -0.90863        1.12543        0.00100
C         -0.44124        2.48592        0.00165
N         -0.41320        3.62903        0.00163
C         -2.21974        0.66045        0.00140
N         -3.00270        1.44806        0.00209
H         -4.00919        1.29120        0.00149
H         -2.85922        2.45665        0.00174
C          1.61822        0.40716       -0.00049
C          1.73225       -1.00927       -0.00148
C          2.82060       -1.95092       -0.00289
N          4.13991       -1.50773       -0.00341
C          4.34477       -0.13984       -0.00274
C          3.92678        1.15811       -0.00180
C          2.59669        1.45623       -0.00082
H          2.26047        2.48638       -0.00007
H          4.65854        1.96243       -0.00209
H          5.44510       -0.15595       -0.00339
H          2.80268       -3.05084       -0.00356
H         -0.19327       -3.18253       -0.00191
H         -2.55077       -2.88560       -0.00049
