29
Coordinates from ORCA-job ./opt_b97-3c_parallel
N         -4.00855       -3.68783       -0.00100
C         -3.33090       -2.76753       -0.00118
C         -2.52560       -1.58552       -0.00129
C         -1.17332       -1.87497       -0.00227
C         -0.24100       -0.88609       -0.00211
C         -0.24817        0.47136       -0.00187
C         -1.27066        1.45356       -0.00134
C         -2.59729        1.05223       -0.00028
C         -3.46510        2.18913        0.00115
N         -4.19134        3.07161        0.00306
C         -3.17579       -0.28407       -0.00015
H         -4.26217       -0.31322        0.00082
H         -0.98986        2.50381       -0.00139
C          1.17979        0.49370       -0.00242
C          1.19577       -0.86091       -0.00251
C          2.22087       -1.85705       -0.00373
C          3.56351       -1.49597       -0.00485
N          4.28589       -2.33053       -0.00592
H          4.07289       -3.32595       -0.00728
H          5.30129       -2.24908       -0.00703
C          4.12009       -0.14990       -0.00491
C          3.52410        1.08540       -0.00355
C          2.21471        1.46165       -0.00310
C          1.87830        2.85085       -0.00544
N          1.58466        3.95616        0.01194
H          4.23595        1.90933       -0.00255
H          5.20760       -0.11044       -0.00612
H          1.89826       -2.89542       -0.00393
H         -0.83244       -2.90761       -0.00326
