28
Coordinates from ORCA-job ./opt_b97-3c_parallel
N         -4.37294       -3.24394       -0.02086
C         -3.57158       -2.42993       -0.03413
C         -2.58786       -1.39140       -0.02074
C         -1.31138       -1.91054       -0.04581
C         -0.21253       -1.11263       -0.03038
C          0.06196        0.20919        0.00298
C         -0.80403        1.35339        0.02875
N         -0.16755        2.26120        0.04100
H         -0.78662        3.06954        0.01020
H          0.78230        2.62788        0.01197
C         -2.19371        1.21333        0.02751
C         -2.92543        2.45054        0.04169
N         -3.52255        3.42457        0.02467
C         -2.99724       -0.00066        0.01041
H         -4.07271        0.15602        0.01832
C          1.42330       -0.00285       -0.01814
C          1.18627       -1.42024       -0.05964
C          1.93920       -2.54848       -0.15429
C          3.19715       -2.04275       -0.06713
N          4.24207       -1.14809        0.00481
C          3.92353        0.16708        0.00050
C          2.58837        0.73976       -0.01708
C          3.08870        2.07775        0.00379
N          3.01220        3.21850       -0.01036
H          5.01599        0.30265        0.02147
H          3.88054       -2.90458       -0.02642
H          1.65700       -3.46240        0.36237
H         -1.15900       -2.98725       -0.07357
