34
Coordinates from ORCA-job ./opt_b97-3c_parallel
N         -0.66822       -4.08452        0.08778
C         -1.08731       -3.02238        0.05370
C         -1.54201       -1.65940        0.01548
C         -0.56179       -0.68536       -0.00314
C         -0.60265        0.69082        0.02799
C          0.83080        0.70866        0.03299
C          0.82274       -0.72011       -0.01683
C          1.85736       -1.64359       -0.06347
N          2.08422       -2.72949       -0.11956
H          2.71353       -3.52837       -0.25276
H          1.16293       -3.17804       -0.07882
N          3.18274       -1.37908       -0.05904
C          3.49498       -0.02469        0.00793
N          4.60388       -0.00698        0.00587
H          5.23591        0.79016        0.11262
H          5.23420       -0.80462       -0.10651
N          3.20237        1.33488        0.07677
C          1.86076        1.72603        0.09200
N          2.13756        2.79829        0.15447
H          1.21156        3.23482        0.10786
H          2.76121        3.60209        0.27670
C         -1.55921        1.68610        0.04257
C         -1.11974        3.05326        0.06464
N         -0.58088        4.00253       -0.27138
C         -2.93969        1.25394       -0.00177
N         -3.69879        2.06097       -0.04468
H         -3.56545        3.06527       -0.15965
H         -4.69194        1.89486       -0.20883
C         -3.47396       -0.01414       -0.02192
C         -2.94111       -1.28302        0.04819
N         -3.69955       -2.08789        0.11797
H         -4.69808       -1.92436        0.24016
H         -3.57001       -3.09765        0.17234
H         -4.57099       -0.01746       -0.10547
