25
Coordinates from ORCA-job ./opt_b97-3c_parallel
N          1.46550        2.56890        0.17441
C          1.71587        1.26191       -0.00343
C          0.63246        0.43956       -0.01166
C          0.50820       -0.96796       -0.00808
C          1.38942       -2.02015       -0.00211
C          2.79867       -1.72178       -0.00378
C          3.41221       -0.49597       -0.00730
C          3.00435        0.81061       -0.01483
H          3.79087        1.56025       -0.01913
H          4.49646       -0.58276       -0.00166
H          3.44956       -2.59049       -0.00163
H          1.04827       -3.05003        0.00075
C         -0.89176       -0.82085       -0.01062
C         -0.81071        0.62351       -0.01707
N         -1.68356        1.30610       -0.02133
C         -2.78478        1.20638       -0.01108
C         -3.64128        0.14163       -0.00567
C         -3.28194       -1.18097       -0.00212
C         -1.94142       -1.71374       -0.00426
H         -1.77849       -2.78662        0.00181
H         -4.08273       -1.91312        0.00449
H         -4.70554        0.36502       -0.00088
H         -3.31020        2.17316        0.00080
H          2.15655        3.26718       -0.09043
H          0.54016        2.93943       -0.03729
