27
Coordinates from ORCA-job ./opt_b97-3c_parallel
N          3.70714        2.33302        0.07456
C          2.96543        1.21405        0.04891
C          1.62761        1.54658        0.05415
C          0.55829        0.59634        0.00745
C          0.52639       -0.82443       -0.02622
N          1.51396       -1.78590       -0.00956
C          2.75639       -1.17385        0.01863
N          3.20578       -2.18651        0.04187
H          4.20101       -2.07512        0.24018
H          3.07526       -3.19125       -0.08320
C          3.49701       -0.01737        0.03387
H          4.58485       -0.09439        0.03451
C         -0.90621       -0.77634       -0.03137
C         -0.87408        0.65170        0.00309
C         -1.84967        1.62323        0.03456
N         -3.18198        1.41685        0.03315
C         -3.52149        0.07146        0.00097
N         -4.62427        0.02342        0.00153
H         -5.28250       -0.75619       -0.02175
H         -5.20116        0.86477        0.02308
N         -3.29636       -1.29850       -0.03166
C         -1.97210       -1.74176       -0.04441
H         -1.96991       -2.84229       -0.06620
H         -1.87431        2.72399        0.06768
H          1.31388        2.58808        0.09104
H          3.32897        3.22754       -0.23711
H          4.70119        2.31616       -0.15449
