30
Coordinates from ORCA-job ./opt_b97-3c_parallel
N         -5.74328       -1.17595       -0.00161
C         -4.60983       -1.04973       -0.00191
C         -3.18203       -0.84714       -0.00148
C         -2.40575       -2.07235       -0.00146
C         -1.05898       -2.25712        0.00079
C         -0.14817       -1.26693       -0.00229
C          1.27566       -1.15577       -0.00130
C          1.20015        0.26202       -0.00354
C          2.16452        1.25172       -0.00194
N          2.25562        2.35567       -0.00209
H          1.31223        2.75730       -0.00131
H          2.86672        3.17288       -0.00247
N          3.50367        1.05396        0.00130
C          3.88585       -0.28671        0.00391
N          4.99186       -0.35919        0.00632
H          5.65218        0.41923        0.00635
H          5.58217       -1.19518        0.00682
N          3.67529       -1.65754        0.00538
C          2.35542       -2.10751        0.00311
H          2.17744       -3.19476        0.00539
C         -0.24257        0.15094       -0.00338
C         -1.33725        0.99688       -0.00339
C         -0.88101        2.36119       -0.00375
N         -0.62618        3.47656        0.00349
C         -2.71268        0.48307       -0.00108
N         -3.39334        1.36545       -0.00010
H         -3.34111        2.38333        0.00467
H         -4.38920        1.14121        0.00312
H         -0.69727       -3.28293        0.00126
H         -3.00920       -2.97667       -0.00338
