32
Coordinates from ORCA-job ./opt_b97-3c_parallel
N          5.43466        1.30696        0.02369
C          4.40217        0.81714       -0.00536
C          3.08688        0.23625       -0.01952
C          3.21972       -1.15240       -0.07635
C          2.21837       -2.20232       -0.08886
C          0.84006       -2.07395       -0.03579
N          0.33142       -3.05198       -0.05497
H          0.79783       -3.95331       -0.13527
H         -0.66672       -3.24909       -0.00626
C          0.20933       -0.79762        0.00795
C          0.64610        0.49039        0.01062
C         -0.64828        0.98135        0.01655
C         -1.14541       -0.34052        0.02898
C         -2.45295       -0.90804        0.05886
C         -2.70338       -2.31488        0.10784
N         -2.93707       -3.43254        0.16447
C         -3.57286       -0.10161        0.06208
C         -3.66819        1.28105        0.01794
C         -2.71541        2.29384       -0.02110
N         -3.04668        3.34644       -0.06477
H         -4.01067        3.60495       -0.26613
H         -2.46413        4.11283       -0.39713
C         -1.27545        2.19679       -0.00643
H         -0.67186        3.10207       -0.03433
H         -4.70084        1.62465        0.01450
H         -4.53173       -0.61342        0.09529
C          1.89424        1.05684        0.01091
N          1.90619        2.16323        0.04552
H          2.83526        2.54932        0.20384
H          1.24637        2.77719        0.51853
H          2.64846       -3.20219       -0.14189
H          4.22833       -1.55971       -0.11645
