26
Coordinates from ORCA-job ./opt_b97-3c_parallel
N          4.84748        1.40574       -0.00689
C          3.86446        0.82254        0.00433
C          2.64804        0.05732        0.00347
C          1.43197        0.75003        0.00236
N          1.27344        1.84794        0.00305
H          2.18572        2.30154       -0.00160
H          0.57965        2.59222       -0.00689
C          0.19951        0.12689       -0.00001
C         -0.22909       -1.15432       -0.00185
C          0.47441       -2.37885       -0.00157
C          1.83367       -2.38310        0.00022
C          2.78449       -1.39363        0.00269
H          3.81712       -1.73094        0.00329
H          2.25743       -3.38458       -0.00145
H         -0.08284       -3.31032       -0.00283
C         -1.59990       -0.77980       -0.00287
C         -1.18723        0.54075       -0.00111
C         -1.90356        1.70364        0.00048
C         -3.26659        1.63841        0.00041
N         -4.34912        0.78122       -0.00067
C         -3.94632       -0.53961       -0.00245
C         -2.84283       -1.34081       -0.00365
H         -2.95169       -2.42238       -0.00368
H         -4.90237       -1.08448       -0.00315
H         -3.83131        2.58218        0.00154
H         -1.40232        2.66752        0.00399
