27
Coordinates from ORCA-job ./opt_b97-3c_parallel
N         -5.62585       -0.38071       -0.00028
C         -4.48367       -0.41489       -0.00012
C         -3.05396       -0.50163       -0.00012
C         -2.42841       -1.81098        0.00001
C         -1.10771       -2.14197       -0.00012
C         -0.11629       -1.23086        0.00040
C          1.31567       -1.22141        0.00061
C          1.33695        0.18898        0.00066
C          2.45201        1.09365        0.00052
N          2.35753        2.19193        0.00028
H          3.12453        2.86115       -0.00013
H          1.49577        2.73499       -0.00018
C          3.72585        0.57130        0.00057
C          3.99348       -0.77656        0.00048
N          3.40505       -1.72415        0.00044
C          2.38742       -2.17910        0.00040
H          2.02724       -3.21853        0.00005
H          5.08284       -0.93195        0.00051
H          4.58066        1.24779        0.00028
C         -0.09529        0.19559        0.00036
C         -1.08943        1.13746        0.00003
C         -0.85967        2.54860        0.00021
N         -0.64004        3.67034       -0.00063
C         -2.49583        0.78105       -0.00021
H         -3.18065        1.62886       -0.00035
H         -0.83943       -3.19566       -0.00054
H         -3.13448       -2.63649        0.00004
