23
Coordinates from ORCA-job ./opt_b97-3c_parallel
N          1.57931        2.66732       -0.00361
C          1.81580        1.32419       -0.00128
C          0.64988        0.53294       -0.00053
C          0.62987       -0.96903        0.00074
C          1.54542       -1.60090        0.00144
N          2.65081       -1.47677        0.00221
C          3.36685       -0.62574        0.00184
C          3.10996        0.79501       -0.00011
H          3.97287        1.45602       -0.00086
H          4.32581       -1.13108       -0.00114
H          1.38697       -2.67326       -0.00040
C         -0.80649       -0.93874        0.00023
C         -0.77162        0.56671       -0.00095
N         -1.92553        1.26629       -0.00118
C         -3.00384        1.00532       -0.00118
N         -3.54620        0.03459       -0.00073
C         -3.33285       -1.05763       -0.00024
C         -2.01592       -1.65493        0.00041
H         -2.02871       -2.74146        0.00128
H         -4.30217       -1.54120        0.00027
H         -3.43135        1.99665       -0.00152
H          0.62224        3.00540       -0.00205
H          2.34700        3.32829       -0.00148
