33
Coordinates from ORCA-job ./opt_b97-3c_parallel
N         -6.57654       -0.84368       -0.03683
C         -5.44475       -0.68299       -0.02686
C         -4.02695       -0.43962       -0.01132
C         -3.38509       -1.68214       -0.05321
C         -1.96456       -1.94888       -0.05240
C         -1.04317       -0.94132       -0.02661
C         -1.13114        0.47353        0.00790
C         -2.16762        1.33785        0.05841
C         -3.47035        0.90905        0.04276
N         -4.11687        1.80905        0.07332
H         -5.11213        1.59865        0.12553
H         -4.03093        2.82341        0.07379
H         -1.92092        2.39168        0.20696
C          0.31116        0.52693        0.00532
C          0.38239       -0.87058       -0.02419
C          1.42947       -1.82335       -0.02717
C          2.76065       -1.41796        0.00012
C          3.38639       -2.72349        0.00624
N          4.25528       -3.46172        0.09112
C          3.30466       -0.04737        0.01118
N          4.40684       -0.21034        0.02224
H          5.03114       -1.01386        0.07956
H          4.99667        0.61861        0.07747
C          2.70283        1.22973        0.00860
C          3.61455        2.35236       -0.00425
N          4.32142        3.24958       -0.04429
C          1.29041        1.56270        0.01910
N          0.78956        2.54981        0.02409
H          1.50722        3.26101       -0.10404
H         -0.08594        2.94927       -0.30706
H          1.09043       -2.86098       -0.04162
H         -1.63585       -2.98286       -0.08544
H         -3.99227       -2.58495       -0.09066
