28
Coordinates from ORCA-job ./opt_b97-3c_parallel
N         -0.61916       -3.92152        0.01570
C         -1.06873       -2.87247        0.01326
C         -1.54649       -1.52837        0.00967
C         -0.59842       -0.44813        0.00586
C         -0.67933        0.97209        0.00668
N         -1.72448        1.86347        0.00246
C         -2.90534        1.15787        0.00206
N         -3.65902        1.96369       -0.00893
H         -3.52461        2.97334       -0.07027
H         -4.66967        1.82326        0.00259
N         -3.62376       -0.02112        0.00617
C         -2.97393       -1.25927        0.01337
H         -3.72064       -2.06966        0.01947
C          0.75490        1.05984        0.00590
C          0.83355       -0.35221        0.00342
C          1.92541       -1.27112       -0.00199
N          2.20529       -2.34185       -0.00647
H          3.10074       -2.83373       -0.00027
H          1.50311       -3.08511       -0.02002
N          3.23606       -0.80901       -0.00731
C          3.69896        0.51492       -0.00560
C          3.09613        1.76960        0.00253
C          1.68276        2.06279        0.00841
N          1.32197        3.10587        0.01727
H          2.00298        3.85998        0.11602
H          0.41422        3.56564       -0.02998
H          3.76560        2.62791        0.00401
H          4.79227        0.65774       -0.01018
