30
Coordinates from ORCA-job ./opt_b97-3c_parallel
N         -4.56049       -0.83086       -0.14304
C         -3.23836       -0.59267       -0.05434
C         -2.61652       -1.81516       -0.03994
C         -1.25724       -1.91395        0.02145
C         -0.43768       -0.82863       -0.01203
C         -0.63494        0.58289       -0.04814
C         -1.79137        1.43703       -0.06682
N         -1.73332        2.53817       -0.08222
H         -2.51989        3.13747        0.15871
H         -0.89280        2.99205        0.26892
C         -3.07352        0.77050       -0.06408
H         -3.93820        1.43356       -0.07570
C          0.76916        0.79794       -0.04139
C          0.98566       -0.59794       -0.00562
C          2.10367       -1.35078        0.04211
C          3.35295       -0.79492        0.01385
N          4.17749       -1.53078        0.02322
H          4.12995       -2.52843       -0.17376
H          5.16209       -1.27309        0.00018
C          3.79437        0.59087       -0.01908
C          3.02951        1.75380       -0.04405
C          1.59124        1.88864       -0.05490
H          1.16749        2.88736       -0.08132
H          3.57587        2.69132       -0.06398
H          4.87313        0.73410       -0.02526
H          1.98066       -2.43071        0.13019
H         -0.80857       -2.90347        0.05542
H         -3.18929       -2.73984       -0.07542
H         -5.23022       -0.11956        0.14317
H         -4.93705       -1.74066        0.11513
