34
Coordinates from ORCA-job ./opt_b97-3c_parallel
N          5.97788        1.12526        0.04130
C          4.85368        0.91912        0.04656
C          3.43068        0.66028        0.01369
C          2.51926        1.80270        0.03514
N          2.85953        2.85746        0.09490
H          2.52166        3.79342        0.31174
H          3.87677        2.90449        0.13641
C          1.15057        1.86741       -0.03621
C          0.35977        0.77375       -0.02728
C          0.62505       -0.62242       -0.01245
C          1.79290       -1.36103       -0.02219
C          1.38499       -2.74613       -0.03218
N          1.11315       -3.85244       -0.11938
C          3.10668       -0.71208       -0.02872
N          3.81883       -1.56919       -0.05093
H          4.80026       -1.29511       -0.09055
H          3.80633       -2.58669       -0.10565
C         -0.78648       -0.87731        0.00444
C         -1.06093        0.49707       -0.01959
C         -2.23899        1.20500       -0.03814
N         -1.98483        2.28245       -0.08964
H         -1.15351        2.81111       -0.35117
H         -2.75737        2.94810       -0.11491
C         -3.49852        0.61179       -0.00027
C         -4.63702        1.48830       -0.01830
N         -5.57169        2.14419       -0.03165
C         -3.78400       -0.81604        0.06810
N         -2.96231       -1.89467        0.07350
C         -1.62176       -2.02808        0.03565
H         -1.48806       -3.12043        0.05832
N         -4.64805       -1.50616        0.11933
H         -5.39409       -0.81005        0.15191
H         -5.10730       -2.40759        0.24776
H          0.63182        2.83053       -0.05765
