30
Coordinates from ORCA-job ./opt_b97-3c_parallel
N         -5.95556       -0.47804        0.02788
C         -4.81571       -0.51196        0.01765
C         -3.38498       -0.48376        0.00456
C         -2.64566       -1.73071        0.00170
C         -1.29354       -1.91540       -0.00591
C         -0.39548       -0.90384       -0.02590
C         -0.53406        0.51466       -0.02784
N         -1.62610        1.37097       -0.01529
C         -2.86899        0.81731       -0.00329
N         -3.21855        1.87458       -0.00261
H         -4.19116        1.55519       -0.04334
H         -3.31359        2.89152        0.04628
C          0.89348        0.67035       -0.03091
C          1.04127       -0.75081       -0.02935
C          2.13638       -1.60134       -0.02529
N          2.23627       -2.70935       -0.02699
H          3.04161       -3.34169        0.04055
H          1.45156       -3.36058       -0.12517
N          3.43464       -1.21689       -0.01523
C          3.62983        0.16520       -0.01143
N          4.73532        0.26346        0.00549
H          5.42341       -0.49475        0.02713
H          5.31789        1.10537        0.01837
N          3.20274        1.49554       -0.01431
C          1.82856        1.77845       -0.02655
N          1.80540        2.89045       -0.02638
H          2.57136        3.57225       -0.05483
H          0.97617        3.49103       -0.00972
H         -0.92654       -2.93947        0.02161
H         -3.26897       -2.62210        0.01001
