28
Coordinates from ORCA-job ./opt_b97-3c_parallel
N          5.32333        1.48709       -0.13856
C          4.27272        1.04208       -0.08765
C          2.97686        0.44584       -0.03439
C          1.78129        1.24470        0.01498
C          0.53047        0.56631        0.04532
C          0.11682       -0.72137        0.03938
C          0.80442       -1.97247        0.02577
N          0.47114       -3.02315        0.03794
H          0.84437       -3.96106        0.17857
H         -0.50898       -3.06186        0.31626
N          2.15011       -1.96163       -0.01192
C          3.03507       -0.93968       -0.04210
H          3.95948       -1.53716       -0.08111
C         -1.20435       -0.35608        0.03655
C         -0.82782        1.01727        0.05709
C         -1.49946        2.18497        0.03757
C         -2.85717        2.27042        0.09052
C         -3.84811        1.21668        0.04368
C         -3.65276       -0.16327       -0.02173
N         -4.54411       -0.81207       -0.07174
H         -5.39403       -0.27116       -0.22579
H         -4.77987       -1.77815       -0.29141
C         -2.43557       -0.95074       -0.01376
H         -2.49955       -2.03566       -0.05763
H         -4.86740        1.59758        0.06368
H         -3.28689        3.26637        0.15182
H         -0.92677        3.10935        0.03983
H          1.82809        2.32987        0.01341
