30
Coordinates from ORCA-job ./opt_b97-3c_parallel
N         -1.64226       -3.35476       -0.10989
C         -1.87905       -2.23965       -0.03238
C         -2.04441       -0.81169       -0.00604
C         -0.77110       -0.16150       -0.01578
C         -0.42030        1.21371        0.00312
C         -1.09745        2.39695        0.04189
C         -2.53541        2.42743        0.06950
C         -3.41205        1.35072        0.05911
C         -3.19009       -0.02840        0.02460
N         -4.15286       -0.57693        0.02764
H         -4.22782       -1.59236       -0.01030
H         -5.10675       -0.22022        0.05821
H         -4.45164        1.68158        0.08276
H         -2.95858        3.42730        0.10344
H         -0.57680        3.34918        0.06063
C          0.95258        0.80633       -0.01447
C          0.56373       -0.50259       -0.02744
C          1.28809       -1.74739       -0.02735
N          2.68489       -1.77101        0.01025
C          3.37425       -0.56567        0.00926
N          4.28381       -1.19202        0.08186
H          4.63659       -2.14925        0.07532
H          5.09117       -0.60565        0.29020
C          3.40947        0.80282       -0.02151
C          2.21922        1.47404       -0.01104
N          2.27733        2.57540       -0.00855
H          1.42532        3.10633       -0.18554
H          3.05124        3.22485       -0.14311
H          4.34870        1.33120       -0.19710
H          0.98281       -2.80480       -0.02795
