31
Coordinates from ORCA-job ./opt_b97-3c_parallel
N          6.09893        1.63213       -0.00172
C          4.99515        1.33559       -0.00151
C          3.62167        0.92363       -0.00073
C          2.81521        2.06576       -0.00184
C          1.37491        2.13613       -0.00120
C          0.60981        1.00768        0.00023
C          0.89034       -0.37926        0.00187
C          2.06148       -1.07945        0.00232
C          2.16706       -2.50501        0.00471
N          2.26819       -3.64365       -0.00044
C          3.31570       -0.49775        0.00104
H          4.19864       -1.13470        0.00142
C         -0.52150       -0.65541        0.00241
C         -0.79358        0.73012        0.00084
C         -1.97677        1.53157       -0.00000
C         -3.24325        0.95455        0.00045
C         -4.14116        2.07923       -0.00026
N         -5.12146        2.66800       -0.00018
C         -3.52370       -0.47783        0.00199
N         -4.60867       -0.70984        0.00232
H         -5.12382       -1.58813        0.00227
H         -5.30514        0.03448        0.00138
C         -2.74455       -1.61616        0.00263
C         -1.38711       -1.78749        0.00317
N         -0.98060       -2.81282        0.00372
H         -0.01970       -3.14880        0.00194
H         -1.57832       -3.63722        0.00264
H         -3.30042       -2.56147        0.00254
H         -1.81226        2.60740       -0.00119
H          0.90331        3.11362       -0.00264
H          3.29475        3.04314       -0.00315
