26
Coordinates from ORCA-job ./opt_b97-3c_parallel
N         -5.65915       -0.97526       -0.00007
C         -4.53549       -0.76779       -0.00027
C         -3.13945       -0.46625        0.00001
C         -2.42605       -1.65758       -0.00176
N         -1.13342       -2.03444       -0.00259
C         -0.22309       -1.01131       -0.00151
C         -0.27499        0.41264        0.00023
C         -1.33595        1.27617        0.00132
C         -1.15065        2.69443        0.00286
N         -0.66946        3.73110        0.00252
C         -2.66439        0.90092        0.00096
H         -3.44432        1.65919        0.00188
C          1.10229        0.43085        0.00011
C          1.20121       -0.92963       -0.00147
C          2.25490       -1.90766       -0.00259
N          3.59124       -1.50008       -0.00226
C          3.86727       -0.13859       -0.00092
N          4.93621       -0.42579       -0.00110
H          5.56655       -1.22783       -0.00110
H          5.54085        0.39485       -0.00002
C          3.43775        1.16135        0.00033
C          2.10528        1.45036        0.00097
H          1.78992        2.48811        0.00218
H          4.15212        1.98363        0.00030
H          1.83581       -2.92584       -0.00360
H         -2.77638       -2.70166       -0.00265
