31
Coordinates from ORCA-job ./opt_b97-3c_parallel
N         -5.90040       -0.47460        0.04259
C         -4.75982       -0.51641        0.03705
C         -3.32914       -0.49737        0.02765
C         -2.59188       -1.74335        0.04265
C         -1.24057       -1.91889        0.05070
C         -0.34442       -0.90745       -0.01348
C         -0.48349        0.50208       -0.04116
N         -1.57217        1.35909       -0.02073
C         -2.81082        0.80132        0.00532
N         -3.13419        1.86549       -0.00591
H         -3.22252        2.88052        0.06222
H         -4.10313        1.54272       -0.07051
C          0.93766        0.65227       -0.04611
C          1.09582       -0.76748       -0.02415
C          2.18158       -1.60110        0.01243
N          1.90565       -2.91403        0.02926
H          1.04752       -3.28430       -0.37968
H          2.63855       -3.61103       -0.10966
C          3.42633       -1.11411        0.03974
C          3.67297        0.23931        0.02806
N          4.72812        0.58662        0.06611
H          5.32671       -0.23510        0.17996
H          5.39320        1.36250        0.02747
N          3.20334        1.55527       -0.00381
C          1.85389        1.68796       -0.03998
N          1.80844        2.79696       -0.04982
H          0.95669        3.35927       -0.02827
H          2.55586        3.49339       -0.11003
H          4.25716       -1.82255        0.07129
H         -0.86726       -2.93731        0.13752
H         -3.21162       -2.63648        0.05911
