25
Coordinates from ORCA-job ./opt_b97-3c_parallel
N         -4.42349       -2.24889        0.01667
C         -3.53331       -1.53197       -0.00683
C         -2.40588       -0.64881       -0.00295
C         -1.16768       -1.27969       -0.00219
C         -0.00889       -0.43900        0.00040
C          0.17720        0.91352        0.00223
C         -0.73103        2.02503        0.00259
N         -1.79255        1.66229        0.00150
C         -2.51315        0.80389       -0.00109
N         -3.45240        1.39086       -0.00210
H         -4.17213        0.67069       -0.00017
H         -3.93396        2.28689        0.00007
H         -0.26717        3.02263        0.00354
C          1.59402        0.71319        0.00227
C          1.40662       -0.63124        0.00059
C          2.25725       -1.76221       -0.00119
C          3.62556       -1.57715       -0.00134
N          4.39749       -0.41001       -0.00031
C          4.03340        0.94224        0.00137
C          2.73105        1.55846        0.00256
H          2.62647        2.63824        0.00321
H          5.00033        1.46693        0.00103
H          4.34359       -2.41063       -0.00278
H          1.82649       -2.75801       -0.00233
H         -1.05989       -2.36020       -0.00390
