25
Coordinates from ORCA-job ./opt_b97-3c_parallel
N         -2.09540       -3.47782        0.00156
C         -2.05006       -2.33586        0.00109
C         -1.97205       -0.89928        0.00046
C         -0.73348       -0.24173        0.00041
C         -0.75441        1.21415       -0.00026
C         -1.70883        2.23140       -0.00087
C         -3.11371        1.89562       -0.00096
N         -3.53298        0.86428       -0.00061
C         -3.24741       -0.21216       -0.00008
H         -4.24368       -0.63935        0.00004
H         -3.96743        2.56271       -0.00152
H         -1.41505        3.27787       -0.00128
C          0.66147        0.88147        0.00020
C          0.68584       -0.58297        0.00087
C          1.66887       -1.10344        0.00166
N          2.76805       -0.91329        0.00193
C          3.37948        0.01537        0.00103
N          4.67368       -0.41589       -0.00401
H          5.43935        0.24820        0.00359
H          4.88401       -1.40753        0.00480
C          3.02118        1.41807        0.00058
C          1.68834        1.83839        0.00005
H          1.46136        2.90153       -0.00048
H          3.81994        2.15577        0.00041
H          1.29090       -2.11897        0.00176
