28
Coordinates from ORCA-job ./opt_b97-3c_parallel
N          4.46528        2.84931       -0.04873
C          3.55034        2.16457       -0.02930
C          2.52368        1.16848       -0.01461
C          1.23785        1.68284       -0.00999
C          0.12894        0.80085        0.00366
C          0.00471       -0.54920        0.01477
C          0.85755       -1.60568        0.01784
C          2.22757       -1.43916        0.00781
C          3.00327       -2.64077        0.01251
N          3.60692       -3.61123        0.00453
C          3.00728       -0.20807       -0.00728
H          4.08804       -0.33157       -0.01363
H          0.43727       -2.60742        0.02848
C         -1.41665       -0.39055        0.02202
C         -1.29186        0.96058        0.01137
C         -2.19091        2.07406        0.00934
C         -3.56891        1.90246        0.01801
C         -4.26657        0.62854        0.03050
C         -3.77881       -0.65445        0.03897
N         -4.74538       -1.58627        0.11217
H         -5.70667       -1.34690       -0.12349
H         -4.56983       -2.53648       -0.20836
C         -2.54901       -1.23804        0.03590
H         -2.40939       -2.31595        0.04435
H         -5.34803        0.74124        0.03340
H         -4.19126        2.79162        0.01490
H         -1.75350        3.06710        0.00033
H          1.03544        2.75030       -0.01674
