32
Coordinates from ORCA-job ./opt_b97-3c_parallel
N         -6.04131       -0.64324        0.02583
C         -4.92096       -0.41783       -0.00199
C         -3.51900       -0.10027       -0.01909
C         -2.53497       -1.15891       -0.03296
N         -1.42929       -1.22291       -0.05241
C         -0.54441       -0.55580       -0.04534
C         -0.69479        0.87815       -0.03118
C         -1.76719        1.74347       -0.02212
C         -3.13998        1.24648       -0.02023
N         -3.75285        2.17106       -0.01236
H         -4.70370        1.80499       -0.05225
H         -3.84318        3.18472        0.02999
H         -1.55946        2.81427       -0.01386
C          0.69935        1.07524       -0.01370
C          0.89245       -0.30854       -0.02979
C          2.04033       -1.03452       -0.00291
N          1.63890       -2.30568        0.19740
H          0.68607       -2.59060       -0.03298
H          2.25850       -3.08740       -0.01530
C          3.28578       -0.45078       -0.03340
C          4.32739       -1.43201       -0.10643
N          5.19433       -2.17337       -0.16192
C          3.68294        0.95064        0.01798
N          4.60074        1.56841        0.02745
H          5.28534        0.81115        0.04641
H          5.14154        2.43068        0.09116
N          2.91124        2.12220        0.05366
C          1.56377        2.12911        0.03086
H          1.16140        3.15388        0.05326
N         -2.65814       -2.26209       -0.02914
H         -2.29892       -3.20781        0.08343
H         -3.67286       -2.32917        0.02544
