29
Coordinates from ORCA-job ./opt_b97-3c_parallel
N         -1.89086       -3.64035        0.00053
C         -2.14712       -2.52644        0.00119
C         -2.30925       -1.10501        0.00210
C         -1.39424       -0.06807        0.00227
C         -1.49967        1.36376        0.00295
N         -2.52624        2.28025        0.00403
C         -3.74237        1.64175        0.00445
C         -4.33364        0.41736        0.00417
C         -3.72828       -0.80837        0.00292
H         -4.41112       -1.65625        0.00250
H         -5.42118        0.41546        0.00495
H         -4.41066        2.51606        0.00540
C         -0.08489        1.46407        0.00247
C          0.05093        0.06015        0.00216
C          1.18887       -0.82559        0.00076
N          0.88584       -1.88880        0.00049
H          0.09933       -2.53544        0.00041
H          1.72581       -2.46553       -0.00053
C          2.56565       -0.32511        0.00013
C          3.62624       -1.30589       -0.00102
N          4.48789       -2.05721       -0.00231
C          2.92110        1.10240        0.00059
N          3.98833        1.41434        0.00013
H          4.50824        2.28972       -0.00005
H          4.67999        0.66618       -0.00098
C          2.17423        2.26606        0.00168
C          0.84351        2.52506        0.00264
H          0.45693        3.53922        0.00322
H          2.72028        3.21641        0.00155
