31
Coordinates from ORCA-job ./opt_b97-3c_parallel
N          4.56692       -0.10810       -0.41185
C          3.32912       -0.00455        0.10156
C          2.90268       -1.28788        0.30649
C          1.59058       -1.57331        0.05206
N          1.30359       -2.86782       -0.16200
H          0.78395       -3.38718        0.54296
H          2.05231       -3.49101       -0.46719
C          0.61154       -0.62476        0.01490
C          0.58695        0.79320        0.02338
C          1.61694        1.79864        0.08778
N          1.31916        2.86114        0.10061
H          0.91654        3.73114        0.45075
H          2.20186        3.12326       -0.33697
C          2.97845        1.31809        0.14813
H          3.74783        2.08434        0.23313
C         -0.77380        0.78660       -0.01788
N         -1.73268        1.73013       -0.02307
C         -2.98651        1.13361       -0.05176
N         -3.61794        2.04144       -0.04470
H         -3.27166        3.00280       -0.05449
H         -4.63448        2.12703       -0.00363
N         -3.68802       -0.06988       -0.07865
C         -2.87349       -1.20089       -0.07782
N         -3.47791       -2.12735       -0.09961
H         -4.48113       -2.29626       -0.01125
H         -3.06325       -3.05359       -0.21870
N         -1.63866       -1.61259       -0.05613
C         -0.83537       -0.59463       -0.03135
H          3.55069       -2.02815        0.77227
H          5.11046       -0.95963       -0.27557
H          5.21503        0.67611       -0.34540
