24
Coordinates from ORCA-job ./opt_b97-3c_parallel
N         -3.80038       -1.55956        0.07971
C         -2.81237       -0.64840        0.07238
C         -1.61762       -1.30115        0.07172
C         -0.46802       -0.47794        0.02009
C         -0.31016        0.87151       -0.02087
C         -1.17416        2.01253       -0.02192
C         -2.55544        1.87874        0.02524
C         -3.30084        0.63330        0.07285
H         -4.37676        0.78532        0.11223
H         -3.16416        2.77723        0.03197
H         -0.72628        3.00049       -0.05178
C          1.10628        0.68431       -0.03748
C          0.94828       -0.67601        0.00559
C          1.78920       -1.76045        0.03537
N          3.13339       -1.67624        0.02492
C          3.56565       -0.35655       -0.01843
N          3.49317        1.03136       -0.06080
C          2.24593        1.56139       -0.06921
H          2.23732        2.66083       -0.09939
H          4.65863       -0.48406       -0.01777
H          1.46874       -2.81203        0.07437
H         -1.49896       -2.38113        0.10830
H         -3.62940       -2.50575       -0.25532
H         -4.74472       -1.29411       -0.19297
