28
Coordinates from ORCA-job ./opt_b97-3c_parallel
N          6.38081        0.73472       -0.03724
C          5.25554        0.54111       -0.03115
C          3.85440        0.25809       -0.02190
C          2.88192        1.31508        0.00930
N          1.79258        1.49899        0.02212
C          0.95754        0.78233        0.01493
C          1.04988       -0.65961       -0.00465
C          2.10627       -1.54565       -0.03178
C          3.47994       -1.08010       -0.04421
H          4.25391       -1.84295       -0.07054
H          1.93278       -2.61610       -0.05037
C         -0.35455       -0.80461        0.01054
C         -0.47973        0.58727        0.02417
C         -1.57073        1.38142        0.06673
C         -2.84452        0.87823        0.00269
C         -3.77653        1.96389       -0.02804
N         -4.56077        2.79371       -0.05003
C         -3.33576       -0.49502       -0.01663
N         -4.34449       -0.95393       -0.05542
H         -4.90273       -0.09731       -0.07721
H         -5.02789       -1.70901       -0.12618
N         -2.62751       -1.71393        0.01046
C         -1.27824       -1.81311        0.02409
N         -1.13801       -2.91028        0.03903
H         -1.59773       -3.82155        0.06941
H         -0.14370       -3.11092        0.15414
H         -1.40103        2.45610        0.15548
H          3.28721        2.33879        0.02886
