27
Coordinates from ORCA-job ./opt_b97-3c_parallel
N         -1.72287       -3.40961       -0.00773
C         -1.73563       -2.26833       -0.00301
C         -1.81422       -0.84252        0.00106
C         -0.61297       -0.04971       -0.00183
C         -0.32328        1.33799       -0.00636
N         -1.08628        2.47466       -0.00513
C         -2.40225        2.08954        0.00510
N         -3.42020        1.15670        0.01269
C         -3.12491       -0.20879        0.00857
N         -4.19082       -0.50648        0.01278
H         -4.16819       -1.52749        0.00265
H         -5.17817       -0.25150        0.01528
H         -2.76400        3.13000        0.00895
C          1.06737        1.03208       -0.01821
C          0.79105       -0.36013       -0.01152
C          1.58099       -1.45344       -0.02812
C          2.94151       -1.39657        0.00319
C          3.80800       -0.22829       -0.00708
N          4.88521       -0.46938        0.01109
H          5.58680        0.24421        0.20070
H          5.37499       -1.36258        0.01102
C          3.51829        1.13805       -0.03545
C          2.21798        1.76788       -0.03841
H          2.16977        2.85214       -0.05157
H          4.34836        1.84262       -0.04782
H          3.45555       -2.35605        0.02888
H          1.11626       -2.43525       -0.05597
