28
Coordinates from ORCA-job ./opt_b97-3c_parallel
N         -5.83683       -1.67014        0.00011
C         -4.74772       -1.32092        0.00023
C         -3.39661       -0.84511        0.00001
C         -2.53961       -1.95089        0.00031
C         -1.09756       -1.96029        0.00029
C         -0.38345       -0.79897        0.00065
C         -0.73525        0.57440        0.00118
C          0.65232        0.92783        0.00086
C          1.00651       -0.44675        0.00040
C          2.28033       -1.12088       -0.00007
N          2.22365       -2.22147       -0.00005
H          3.15043       -2.64782       -0.00181
H          1.54676       -2.98108       -0.00234
C          3.43311       -0.34151        0.00011
C          4.81039       -0.74045       -0.00028
N          5.65473       -1.51142       -0.00198
C          3.32480        1.10305        0.00006
N          2.54631        1.90115       -0.00003
C          1.45446        2.11957        0.00044
H          0.90973        3.07575        0.00073
H          4.23871        1.71696       -0.00003
C         -1.93246        1.22334        0.00114
C         -1.98108        2.65215        0.00248
N         -2.04230        3.79344       -0.00010
C         -3.15738        0.58919        0.00049
H         -4.06087        1.19505        0.00129
H         -0.58505       -2.91660       -0.00010
H         -2.97547       -2.94846       -0.00035
