32
Coordinates from ORCA-job ./opt_b97-3c_parallel
N         -6.25972       -0.45168        0.05616
C         -5.13206       -0.27151        0.02277
C         -3.71146       -0.08006       -0.00199
C         -3.12736       -1.34251       -0.02565
N         -1.87567       -1.84977       -0.04404
C         -0.87474       -0.91377       -0.07377
C         -0.80517        0.50200       -0.07498
C         -1.71221        1.50651       -0.02217
C         -3.05451        1.21983        0.00917
N         -3.61921        2.17121        0.04394
H         -3.50904        3.16180        0.25433
H         -4.62187        1.98724        0.05545
H         -1.34858        2.53469        0.03128
C          0.57615        0.40533       -0.05642
C          0.54694       -0.95004       -0.05548
C          1.48967       -2.01138       -0.01091
N          1.20569       -3.08082       -0.00641
H          0.18293       -3.10739       -0.04924
H          1.49541       -4.05908        0.02849
N          2.85386       -1.73595        0.03936
C          3.48804       -0.48305        0.05270
N          4.38664       -1.13624        0.09303
H          5.04628       -1.91467        0.13844
H          4.97977       -0.30133        0.08975
C          3.01509        0.83464        0.02075
C          4.10650        1.77138        0.04973
N          5.23946        1.88411       -0.05820
C          1.65552        1.34402       -0.02738
N          1.34364        2.40396       -0.05138
H          0.48449        2.89010       -0.30728
H          2.07061        3.11869       -0.02365
H         -3.60188       -2.33666       -0.02699
