24
Coordinates from ORCA-job ./opt_b97-3c_parallel
N          1.60710        3.40255        0.00186
C          1.55255        2.26172        0.00147
C          1.54262        0.83406        0.00110
C          0.32273        0.10787        0.00094
C         -0.00689       -1.26119        0.00064
N          0.71340       -2.37468        0.00019
C          2.05549       -2.35309        0.00019
N          2.98290       -1.30389        0.00044
C          2.77843        0.08289        0.00079
N          3.86383        0.29739        0.00075
H          4.84110        0.00617        0.00079
H          3.87945        1.31843        0.00067
H          2.34165       -3.41676       -0.00018
C         -1.40294       -0.93713        0.00038
C         -1.06564        0.43329        0.00081
C         -1.82378        1.62946        0.00117
N         -3.20714        1.58347        0.00092
C         -4.03524        0.45526        0.00030
C         -3.83052       -0.92090       -0.00003
C         -2.57574       -1.62882        0.00015
H         -2.58130       -2.71466        0.00005
H         -4.71828       -1.54594       -0.00024
H         -5.06127        0.85376        0.00024
H         -1.62285        2.71158        0.00156
