28
Coordinates from ORCA-job ./opt_b97-3c_parallel
N         -4.34474       -0.20290        0.01899
C         -3.27839        0.10088        0.01262
N         -2.57249       -0.99871        0.01430
C         -1.37196       -1.51402        0.00954
N         -1.37084       -2.62245        0.01476
H         -0.53725       -3.21045        0.05244
H         -2.14551       -3.28946        0.00393
C         -0.47685       -0.45870        0.00289
C         -0.58247        0.91716        0.00058
C         -1.57575        1.87228       -0.00001
C         -2.96176        1.45220        0.00568
H         -3.73016        2.22309        0.00507
H         -1.33838        2.93362       -0.00407
C          0.84244        1.00214       -0.00342
C          0.96406       -0.35120       -0.00301
N          1.95623       -1.25073       -0.01607
C          3.15181       -0.53571       -0.01648
N          3.73533       -1.47853       -0.04783
H          4.69750       -1.16634       -0.19328
H          3.81285       -2.49303        0.03729
C          3.78797        0.68586       -0.00038
C          3.15722        1.87005        0.00193
C          1.79677        2.06587       -0.00875
H          1.39760        3.07610       -0.01095
H          3.77954        2.76348        0.01856
H          4.87851        0.71406        0.01644
H         -4.92588        0.63758        0.05893
H         -5.02304       -0.96736       -0.00880
