33
Coordinates from ORCA-job ./opt_b97-3c_parallel
N         -5.68300       -0.76949       -0.00329
C         -4.55309       -0.59813       -0.02373
C         -3.12988       -0.36775       -0.01438
C         -2.34997       -1.59443       -0.00868
C         -0.91987       -1.76234        0.00144
C         -0.44483       -3.10951        0.00285
N         -0.11253       -4.20352        0.00186
C         -0.10151       -0.66395        0.00539
C         -0.29622        0.68939       -0.00036
C          1.13325        0.87010        0.00658
C          1.32902       -0.46746        0.01342
C          2.49305       -1.31281        0.02321
N          2.53863       -2.41436        0.02902
H          3.35723       -3.01941        0.03530
H          1.72831       -3.02974        0.01665
C          3.79061       -0.80210        0.01815
C          4.14388        0.61096        0.00933
N          5.23783        0.77744       -0.00494
H          5.68051        1.69273       -0.06194
H          5.97701        0.08770       -0.12433
C          3.37714        1.75139        0.02406
C          2.03663        1.96959        0.00896
H          1.64957        2.98066        0.00505
H          3.93165        2.69109        0.05534
H          4.64233       -1.48843        0.01760
C         -1.37701        1.53903       -0.00874
C         -0.94706        2.91549       -0.00988
N         -0.96858        4.05802        0.02290
C         -2.72673        0.98168       -0.01368
N         -3.43390        1.84290       -0.01787
H         -4.43756        1.66777       -0.01244
H         -3.31439        2.85398        0.03123
H         -2.92570       -2.51756       -0.01214
