32
Coordinates from ORCA-job ./opt_b97-3c_parallel
N          6.36044        0.32243        0.00336
C          5.21834        0.26144        0.00327
C          3.79429        0.14537        0.00243
C          3.24612        1.41678        0.00241
N          2.01436        1.95226        0.00150
C          0.97248        1.05763        0.00047
C          0.82020       -0.35589       -0.00051
C          1.76964       -1.34908       -0.00065
C          1.57757       -2.76702       -0.00280
N          1.35768       -3.88884        0.00043
C          3.14060       -1.14489        0.00090
H          3.83347       -1.98578        0.00093
C         -0.55966       -0.17628       -0.00179
C         -0.44861        1.17510       -0.00108
C         -1.33349        2.29033       -0.00220
N         -0.90236        3.30668       -0.00132
H          0.11181        3.41199       -0.00134
H         -1.29897        4.24426       -0.00255
C         -2.70836        2.14978       -0.00479
C         -3.45041        0.88404       -0.00583
N         -4.49762        1.26168       -0.00720
H         -5.18104        0.50609       -0.00524
H         -5.02725        2.13113       -0.00587
C         -2.99417       -0.44431       -0.00516
C         -4.05946       -1.42464       -0.00653
N         -4.92378       -2.17333       -0.00723
C         -1.72223       -1.01965       -0.00358
N         -1.40131       -2.08041       -0.00288
H         -2.25971       -2.62877       -0.00075
H         -0.63754       -2.75320        0.00015
H         -3.26788        3.09327       -0.00554
H          3.74418        2.39906        0.00251
