28
Coordinates from ORCA-job ./opt_b97-3c_parallel
N          2.06824        3.25295        0.09797
C          1.95553        2.11680        0.04147
C          1.79932        0.69026        0.00921
C          0.51891        0.17278        0.00330
C          0.02805       -1.11091       -0.01714
C          0.50109       -2.39604       -0.06268
C          1.92307       -2.56803       -0.08157
C          2.89093       -1.60363       -0.02538
C          2.92726       -0.22546       -0.00341
N          3.96385        0.16673        0.00923
H          4.12289        1.17301       -0.00675
H          4.88227       -0.27277       -0.01715
H          3.87203       -2.08697        0.00517
H          2.26290       -3.59825       -0.13684
H         -0.15310       -3.26027       -0.10119
C         -1.29794       -0.59390       -0.00681
C         -0.75428        0.71831        0.00716
C         -1.29315        1.97579       -0.00322
C         -2.61915        2.12704       -0.03209
C         -3.45000        1.03692       -0.03964
N         -3.70985       -0.32972       -0.03134
C         -2.58715       -1.07845       -0.01333
N         -3.00187       -2.10099       -0.00491
H         -2.32981       -2.81608        0.27084
H         -3.92549       -2.50294        0.15028
H         -4.47118        1.44813       -0.07136
H         -3.04403        3.12946       -0.04626
H         -0.65707        2.85654        0.00400
