33
Coordinates from ORCA-job ./opt_b97-3c_parallel
N         -5.79972       -2.22257        0.00405
C         -4.77658       -1.71199        0.00311
C         -3.51144       -1.03422        0.00248
C         -2.59047       -2.06903        0.00156
N         -1.25400       -2.18967        0.00080
C         -0.55059       -1.01372        0.00026
C         -0.85381        0.37920        0.00126
C         -2.06328        1.03779        0.00222
C         -1.83437        2.45623        0.00287
N         -1.67553        3.58795        0.00174
C         -3.30315        0.40866        0.00273
N         -4.22245        1.03038        0.00374
H         -4.38701        2.03584        0.00343
H         -5.14022        0.58671        0.00539
C          0.50933        0.62706        0.00091
C          0.83930       -0.68403       -0.00011
C          2.05726       -1.43079       -0.00131
N          1.86519       -2.52085       -0.00216
H          0.93342       -2.93775       -0.00033
H          2.52332       -3.30032        0.00104
C          3.27211       -0.76054       -0.00115
C          4.51290       -1.48793       -0.00234
N          5.65401       -1.42586        0.00342
C          3.48789        0.68396        0.00007
N          2.72296        1.86188        0.00151
C          1.33182        1.78989        0.00181
N          1.44603        2.88711        0.00264
H          1.80530        3.84105        0.00374
H          0.42999        2.97542        0.00301
N          4.31069        1.42947        0.00032
H          4.75905        2.34523       -0.00215
H          5.07495        0.75056        0.00179
H         -2.56005       -3.16983        0.00121
