29
Coordinates from ORCA-job ./opt_b97-3c_parallel
N         -5.60850       -0.24395        0.00125
C         -4.47405       -0.10940        0.00034
C         -3.05070        0.09839        0.00007
C         -2.40276       -1.13700        0.00113
C         -1.04054       -1.38116        0.00008
C         -0.67559       -2.76488        0.00083
N         -0.34608       -3.85903        0.00119
C         -0.04846       -0.43474       -0.00161
C         -0.08607        0.93464       -0.00272
C         -1.12687        1.80020       -0.00083
C         -2.45005        1.42794       -0.00118
N         -3.06874        2.34699       -0.00219
H         -4.06877        2.14845       -0.00109
H         -2.97783        3.36105       -0.00648
H         -0.85446        2.85893        0.00216
C          1.34417        0.96760       -0.00380
C          1.32845       -0.44814       -0.00294
C          2.39128       -1.40717       -0.00238
C          3.69451       -1.00497       -0.00397
C          4.05086        0.31745       -0.00391
N          5.11079        0.63565       -0.00429
H          5.70037        1.46785       -0.00411
H          5.75624       -0.15392       -0.00529
N          3.65894        1.60607       -0.00399
C          2.35991        1.98520       -0.00389
H          1.96837        3.01390       -0.00366
H          4.46349       -1.77699       -0.00535
H          2.13267       -2.46105       -0.00164
H         -3.03555       -2.02518        0.00202
