26
Coordinates from ORCA-job ./opt_b97-3c_parallel
N         -1.21709       -2.91371        0.18284
C         -1.54693       -1.62300        0.01710
C         -0.54431       -0.70525       -0.00155
C         -0.49620        0.72212       -0.00414
C          0.93747        0.73105       -0.01048
N          1.88288        1.61955       -0.00875
C          3.11326        1.20889        0.00224
C          3.81301        0.03646       -0.00123
C          3.12990       -1.14505       -0.00450
N          1.85720       -1.68506       -0.00667
C          0.88690       -0.69906       -0.00959
H          3.72840       -2.06834       -0.00282
H          4.90013        0.04348        0.00647
H          3.73929        2.11353        0.00547
C         -1.46922        1.69544        0.00187
N         -1.26237        2.77922        0.00238
H         -0.27059        3.01409        0.00744
H         -1.77725        3.65704        0.01291
C         -2.85372        1.28343        0.00340
C         -3.36426        0.01107        0.00083
C         -2.86246       -1.26170       -0.01763
H         -3.59425       -2.06485       -0.04377
H         -4.45159        0.01421        0.00748
H         -3.58938        2.08464        0.00648
H         -1.85757       -3.64996       -0.10623
H         -0.26632       -3.22204       -0.01612
