29
Coordinates from ORCA-job ./opt_b97-3c_parallel
N          2.14326        3.36151       -0.00466
C          2.04774        2.22262        0.01912
C          1.91347        0.78696        0.03744
C          0.62519        0.23103        0.02092
C          0.34234       -1.24236        0.02857
C          1.32119       -2.24253        0.08292
C          2.74169       -2.02025        0.13835
N          3.34471       -1.09250        0.13653
C          3.12084       -0.01097        0.07369
N          4.39120        0.46918       -0.09393
H          4.55618        1.46971       -0.08898
H          5.18448       -0.14736        0.04279
H          3.53625       -2.75255        0.22077
H          1.04557       -3.29366        0.09778
C         -1.05866       -0.97575       -0.01824
C         -0.77991        0.50081       -0.01410
C         -1.53369        1.31729       -0.03204
N         -2.64256        1.40438       -0.03926
C         -3.49622        0.69417       -0.04606
N         -4.62684        1.44726        0.08366
H         -4.54938        2.44042        0.27152
H         -5.51678        0.99497        0.25942
C         -3.51954       -0.74971       -0.09592
C         -2.35676       -1.52681       -0.07312
N         -2.42372       -2.89029       -0.10808
H         -1.57151       -3.41037       -0.28507
H         -3.30662       -3.32763       -0.34742
H         -4.49544       -1.22781       -0.14285
H         -1.18745        2.34364       -0.06327
