31
Coordinates from ORCA-job ./opt_b97-3c_parallel
N          3.57502        2.32039        0.05366
C          2.75066        1.26097       -0.00529
C          1.47019        1.72204       -0.02821
C          0.46666        0.72483       -0.02363
C          0.54302       -0.63693       -0.01387
N          1.44606       -1.62828       -0.02700
C          2.80301       -1.28231       -0.05921
N          3.19926       -2.31199       -0.09117
H          2.86166       -3.27232       -0.03152
H          4.18861       -2.37489       -0.32977
C          3.39304        0.04955       -0.05488
H          4.47992        0.04430       -0.09157
C         -0.89499       -0.66632       -0.00426
C         -0.96039        0.68991       -0.01841
C         -2.01116        1.66144       -0.02494
N         -1.72312        2.72594       -0.04468
H         -2.59204        3.25855       -0.03633
H         -0.99264        3.37916       -0.32148
C         -3.34917        1.28721       -0.00563
C         -3.84922       -0.07598        0.01510
C         -3.22775       -1.29904        0.01032
C         -1.91162       -1.65718        0.01085
N         -1.56590       -2.70636        0.02688
H         -0.83171       -3.40885        0.07989
H         -2.44704       -3.20994        0.11888
H         -3.93176       -2.13151        0.00261
H         -4.93420       -0.12340        0.03190
H         -4.11023        2.06434       -0.00439
H          1.18328        2.77153       -0.03334
H          4.53251        2.22650        0.39023
H          3.22905        3.23398        0.34735
