25
Coordinates from ORCA-job ./opt_b97-3c_parallel
N          4.38786        2.22546       -0.00117
C          3.49750        1.50770        0.00286
C          2.40059        0.57570        0.00017
C          1.09584        1.19427       -0.00088
C         -0.07230        0.39086       -0.00282
C         -0.29680       -0.92538       -0.00399
C          0.50111       -2.09420       -0.00414
C          1.87411       -1.96846       -0.00305
C          2.66741       -0.80772       -0.00114
N          3.70393       -1.21204       -0.00078
H          4.17888       -2.11242       -0.00256
H          4.43364       -0.50117       -0.00113
H          2.35533       -2.95176       -0.00381
H          0.02373       -3.06901       -0.00547
C         -1.68476       -0.65454       -0.00475
N         -2.70878       -1.52565       -0.00572
C         -3.90352       -0.82191       -0.00571
C         -4.32657        0.48066       -0.00493
C         -3.40375        1.49316       -0.00376
N         -2.29171        1.48822       -0.00352
C         -1.47696        0.73050       -0.00363
H         -3.94734        2.44976       -0.00270
H         -5.38976        0.70943       -0.00488
H         -4.74985       -1.52465       -0.00652
H          0.99812        2.27584        0.00011
