26
Coordinates from ORCA-job ./opt_b97-3c_parallel
N         -6.11039       -0.48711        0.01257
C         -4.96835       -0.45658       -0.00444
C         -3.53947       -0.44599       -0.00061
C         -3.08098        0.86860       -0.00095
N         -1.88675        1.50114       -0.00047
C         -0.79717        0.66919        0.00049
C         -0.60371       -0.73676        0.00232
C         -1.41339       -1.81723        0.00380
C         -2.77075       -1.67553        0.00191
H         -3.36977       -2.58164        0.00219
H         -0.98152       -2.81567        0.00401
C          0.75479       -0.51902        0.00126
C          0.61881        0.83095       -0.00052
C          1.48658        1.96326       -0.00198
N          1.14764        3.01380       -0.00289
H          1.53598        3.95598       -0.00388
H          0.13126        3.12382       -0.00289
N          2.87126        1.81096       -0.00137
C          3.48805        0.60218       -0.00087
C          3.13298       -0.73881        0.00027
C          4.32094       -1.53279        0.00043
N          5.29017       -2.13702        0.00092
C          1.90169       -1.35867        0.00166
H          1.79387       -2.43967        0.00274
H          4.49515        1.04990       -0.00201
H         -3.69079        1.78581       -0.00257
