28
Coordinates from ORCA-job ./opt_b97-3c_parallel
N         -5.11090       -1.57644        0.00480
C         -4.16657       -0.93285       -0.00012
C         -2.95660       -0.16597       -0.00359
C         -3.30051        1.18024       -0.01155
N         -2.71367        2.40151       -0.01605
C         -1.33959        2.59394       -0.01230
C         -0.44566        1.48895       -0.00632
C          0.96962        1.37325       -0.00498
C          0.87087        0.02462       -0.00318
C          1.79576       -0.97606       -0.00571
C          1.64618       -2.39922       -0.00991
N          1.57666       -3.53848       -0.01529
C          3.15016       -0.69118       -0.00939
N          4.20335       -1.04283       -0.01401
H          5.22235       -1.06485        0.02727
H          3.91257       -2.01897       -0.08043
N          3.88220        0.45263       -0.00754
C          3.40151        1.77763       -0.00360
C          2.05104        2.29273       -0.00523
H          1.86500        3.36276       -0.00441
H          4.05334        2.66508       -0.00126
C         -0.57206        0.13408       -0.00270
C         -1.62727       -0.74034        0.00034
N         -1.40371       -1.82258        0.00724
H         -2.34649       -2.20985        0.02812
H         -0.77284       -2.62103        0.04237
H         -1.27404        3.69266       -0.01746
H         -4.25459        1.72985       -0.01658
