26
Coordinates from ORCA-job ./opt_b97-3c_parallel
N          5.00208        1.99439        0.05449
C          4.14929        1.23438        0.02972
C          3.05198        0.32056        0.00632
C          1.77103        0.85855        0.00159
C          0.67402       -0.06800       -0.01185
C          0.59652       -1.43236       -0.01989
C          1.58638       -2.47385       -0.02242
N          2.60916       -2.03219       -0.02059
C          3.24450       -1.11455       -0.00629
H          4.28963       -1.46098        0.00091
H          1.51223       -3.57206       -0.02528
C         -0.82967       -1.35000       -0.01316
C         -0.75693        0.00629       -0.00618
C         -1.71525        1.05358        0.01043
C         -1.22802        2.39957        0.01577
N         -1.74204        3.41564       -0.08436
C         -3.06657        0.74943        0.01628
N         -4.06573        1.22309        0.02427
H         -5.08075        1.31561        0.01713
H         -3.69817        2.17610       -0.01086
N         -3.72424       -0.48967        0.01851
C         -3.23727       -1.80637        0.01297
C         -1.88227       -2.29791       -0.00319
H         -1.67261       -3.36327       -0.00596
H         -3.90255       -2.68366        0.02023
H          1.59606        1.92997        0.01255
