30
Coordinates from ORCA-job ./opt_b97-3c_parallel
N         -1.26558       -3.77131        0.25761
C         -1.36588       -2.63718        0.17671
C         -1.49413       -1.21638        0.02931
C         -0.33999       -0.47819       -0.11491
C         -0.08059        0.93566       -0.09895
C         -0.83037        2.07349        0.06500
C         -2.26316        1.93200        0.07915
N         -2.79515        2.88892        0.22026
H         -2.35717        3.71768       -0.17837
H         -3.79712        2.98577        0.06865
C         -2.94861        0.79740       -0.26873
C         -2.76082       -0.51956        0.07430
N         -3.74324       -0.99853        0.25378
H         -4.72730       -0.83768        0.45786
H         -3.63125       -2.00233        0.11840
H         -3.72484        0.97146       -1.01891
H         -0.37216        3.05090        0.19517
C          1.31570        0.63103       -0.13134
C          1.01826       -0.70073       -0.14635
C          1.82345       -1.89527       -0.09914
N          3.21341       -1.82560       -0.05724
C          3.78766       -0.56659       -0.04230
C          3.76497        0.79822       -0.04263
C          2.53161        1.38612       -0.05874
N          2.50660        2.48830       -0.00199
H          1.68916        2.97959        0.35339
H          3.32439        3.01025        0.30629
H          4.67624        1.36098       -0.23934
H          4.76821       -1.06443       -0.01103
H          1.65785       -2.98305       -0.07424
