24
Coordinates from ORCA-job ./opt_b97-3c_parallel
N         -1.52913       -2.59120        0.17844
C         -1.75461       -1.27852        0.01111
C         -0.64905       -0.50358       -0.01146
C         -0.46032        0.90454       -0.01011
C         -1.39822        1.89638        0.00217
N         -2.74223        1.81928        0.00346
C         -3.45886        0.61344       -0.00629
C         -3.02281       -0.77164       -0.00787
H         -3.84694       -1.47871       -0.01884
H         -4.55173        0.73974       -0.01289
H         -1.18937        2.97651        0.00762
C          0.89780        0.73409       -0.01563
C          0.78093       -0.62000       -0.01845
N          1.69033       -1.65100       -0.01295
C          2.95784       -1.10882       -0.00928
C          3.79496       -0.02894       -0.00701
C          3.35457        1.23520       -0.00697
C          2.03241        1.60868       -0.00830
H          1.81317        2.67161       -0.00168
H          4.09827        2.02826       -0.00364
H          4.86756       -0.20803       -0.00463
H          3.38847       -2.12147       -0.00661
H         -2.22094       -3.27544       -0.11940
H         -0.60259       -2.97194       -0.01009
