31
Coordinates from ORCA-job ./opt_b97-3c_parallel
N          5.78717        1.43381       -0.02270
C          4.80490        0.85033       -0.02723
C          3.54833        0.15591       -0.02527
C          2.29752        0.89066       -0.00802
N          2.12205        1.98157        0.01078
H          1.55445        2.68248        0.48288
H          3.07619        2.34073        0.00768
C          1.08847        0.13731       -0.00624
C          0.78989       -1.17442       -0.00388
C          1.51290       -2.32590       -0.01818
C          2.88950       -2.35576       -0.04301
C          3.79950       -1.22209       -0.04564
H          4.84068       -1.54102       -0.06539
H          3.36302       -3.33321       -0.06231
H          0.98260       -3.27311       -0.01950
C         -0.62919       -0.89890        0.00637
N         -1.62839       -1.72130        0.01565
C         -2.71274       -0.99301        0.01518
N         -3.14008       -2.02397        0.04976
H         -4.12327       -1.74790        0.09218
H         -3.14672       -3.04239        0.11363
C         -3.21545        0.31208       -0.01202
C         -4.65290        0.41599       -0.00811
N         -5.63684       -0.16309        0.05366
C         -2.44123        1.48073       -0.04190
N         -2.80693        2.52736       -0.07642
H         -2.32671        3.41845       -0.20356
H         -3.80201        2.73560       -0.15746
C         -1.05019        1.58032       -0.03201
C         -0.30373        0.43220       -0.00566
H         -0.52641        2.53801       -0.05278
