26
Coordinates from ORCA-job ./opt_b97-3c_parallel
N         -6.46370       -0.16774       -0.00036
C         -5.32521       -0.06591       -0.00017
C         -3.90626        0.10161       -0.00004
C         -3.29601       -1.14823       -0.00030
N         -2.03756       -1.63472       -0.00060
C         -1.04969       -0.68202       -0.00031
C         -1.02592        0.73699        0.00052
C         -1.95851        1.71403        0.00057
C         -3.28944        1.41342        0.00032
H         -3.99137        2.24190        0.00044
H         -1.64562        2.75517        0.00050
C          0.34892        0.68547        0.00021
C          0.37506       -0.66755       -0.00011
C          1.37369       -1.67421       -0.00072
C          2.71047       -1.32481       -0.00080
C          3.59555       -2.44792       -0.00121
N          4.41535       -3.24425       -0.00082
C          3.32282       -0.00580       -0.00055
C          2.69540        1.23708       -0.00010
C          3.60362        2.34400        0.00009
N          4.35395        3.20634        0.00025
C          1.37981        1.66126        0.00013
H          1.10922        2.71436        0.00079
H          4.41114       -0.01158       -0.00075
H          1.04025       -2.70860       -0.00115
H         -3.68733       -2.17703       -0.00060
