25
Coordinates from ORCA-job ./opt_b97-3c_parallel
N          5.47325        0.37571        0.00318
C          4.36016        0.11576        0.00029
C          2.95554       -0.16838       -0.00113
C          1.97517        0.82313       -0.00357
N          2.11686        1.92045       -0.00508
H          3.02898        2.37377        0.00068
H          1.41471        2.65928       -0.00222
C          0.64018        0.46643       -0.00415
C         -0.04527       -0.71940       -0.00282
C          0.46035       -2.06594       -0.00076
N          1.57245       -2.14958        0.00011
C          2.51216       -1.54816        0.00024
H          3.30438       -2.31237        0.00261
H         -0.13426       -2.99174        0.00006
C         -1.27888       -0.12021       -0.00463
C         -0.62488        1.14872       -0.00559
N         -1.05446        2.44938       -0.00698
C         -2.42490        2.42138       -0.00705
N         -3.65541        1.80628       -0.00702
C         -3.73326        0.41359       -0.00528
C         -2.65131       -0.55366       -0.00406
C         -2.96633       -1.94640       -0.00259
N         -3.24797       -3.05415       -0.00218
H         -4.81700        0.22659       -0.00529
H         -2.54812        3.51503       -0.00815
