33
Coordinates from ORCA-job ./opt_b97-3c_parallel
N          5.07536        1.82195       -0.00008
C          4.18870        1.10100       -0.00230
C          3.03871        0.22778       -0.00445
C          1.72037        0.84910       -0.00737
N          1.47809        1.92671       -0.00784
H          0.86168        2.73680       -0.00483
H          2.42483        2.30421       -0.01714
C          0.56239        0.01147       -0.00812
C          0.39119       -1.33418       -0.00841
C         -1.02688       -1.15136       -0.00708
C         -0.86855        0.19615       -0.00674
C         -1.79466        1.28354       -0.00377
C         -1.43974        2.66810       -0.00698
N         -1.21490        3.78752       -0.01151
C         -3.14287        0.96980        0.00168
N         -3.82008       -0.20627       -0.00230
C         -3.46941       -1.52127       -0.00966
N         -4.37854       -2.15202       -0.01483
H         -4.17704       -3.15252       -0.06093
H         -5.39753       -2.09081       -0.00587
C         -2.12540       -2.05931       -0.00827
H         -1.94675       -3.13143       -0.01053
N         -4.11174        1.51240        0.00844
H         -3.66884        2.43410       -0.01088
H         -5.11100        1.71290        0.06728
C          1.19261       -2.42969       -0.00794
C          2.56680       -2.36962       -0.00636
C          3.37821       -1.14223       -0.00371
N          4.38703       -1.61106       -0.00060
H          4.88639       -2.49887        0.02292
H          5.10397       -0.88639        0.00885
H          3.04656       -3.35448       -0.00653
H          0.72933       -3.41115       -0.00849
