27
Coordinates from ORCA-job ./opt_b97-3c_parallel
N         -4.92116       -1.91221       -0.03356
C         -3.79780       -1.71312        0.00164
C         -2.86935       -0.62060        0.00194
C         -1.54354       -1.21183        0.00202
C         -0.41760       -0.34275        0.00289
C         -0.28247        0.99779        0.00245
C         -1.16872        2.11193       -0.00136
N         -2.55134        1.92696        0.00029
C         -3.26914        0.71975        0.00267
N         -4.24536        1.24908        0.00394
H         -4.95047        0.50579        0.00299
H         -4.78791        2.11420        0.01258
H         -0.88449        3.17634       -0.00452
C          1.12785        0.80933        0.00106
N          2.24510        1.62852       -0.00408
C          3.41867        0.87597       -0.00926
N          4.23630        1.62065       -0.01449
H          4.16279        2.64002       -0.02315
H          5.24207        1.43729       -0.01315
N          3.92424       -0.42581       -0.01280
C          2.95982       -1.43650       -0.00836
N          3.60940       -2.33394       -0.01585
H          3.24876       -3.29058       -0.01298
H          4.62556       -2.44932       -0.03299
N          1.67624       -1.68462       -0.00072
C          1.01925       -0.56757        0.00170
H         -1.39441       -2.28986        0.00160
