28
Coordinates from ORCA-job ./opt_b97-3c_parallel
N         -0.14361       -4.14634       -0.00237
C         -0.96235       -3.34978       -0.00101
C         -1.19594       -1.94026       -0.00012
C         -0.33334       -0.88058       -0.00019
C         -0.50859        0.52909       -0.00018
C          0.91896        0.70824       -0.00053
C          1.08758       -0.70178       -0.00032
C          2.24577       -1.54176        0.00009
C          3.49675       -0.99565        0.00049
C          3.70443        0.35869        0.00004
N          4.70962        0.82305       -0.00026
H          5.21026        1.71284       -0.00048
H          5.43999        0.11027       -0.00156
N          3.16117        1.59249       -0.00024
C          1.82725        1.82720       -0.00020
H          1.61364        2.90724        0.00010
H          4.34897       -1.67532        0.00103
H          2.10436       -2.61789        0.00064
C         -1.61752        1.33453       -0.00032
C         -1.37902        2.74360       -0.00031
N         -1.86296        3.77780        0.00139
C         -2.93723        0.73940        0.00042
N         -3.97302        1.13227        0.00123
H         -3.91909        2.15320        0.00163
H         -4.97229        0.92015        0.00208
N         -3.44614       -0.56477        0.00075
C         -2.61574       -1.69381        0.00055
H         -3.41180       -2.45595        0.00075
