25
Coordinates from ORCA-job ./opt_b97-3c_parallel
N          4.77800        1.21509       -0.00038
C          3.94455        0.43234       -0.00182
C          2.53752        0.16901       -0.00166
C          1.37728        0.93603       -0.00096
N          1.36860        2.04010       -0.00029
H          2.18700        2.64593        0.00011
H          0.54664        2.64190        0.00023
C          0.11090        0.24929       -0.00094
C         -0.22352       -1.05658       -0.00166
C          0.57917       -2.24792       -0.00244
N          1.67950       -2.08217       -0.00257
C          2.44839       -1.27576       -0.00236
H          3.21059       -2.07076       -0.00297
H          0.04540       -3.21018       -0.00260
C         -1.54554       -0.74820       -0.00112
C         -1.26850        0.68902       -0.00038
N         -1.99176        1.52706        0.00088
C         -3.09600        1.58286        0.00087
C         -4.11420        0.67276       -0.00002
C         -3.97315       -0.68957       -0.00031
C         -2.73954       -1.43848       -0.00091
H         -2.76468       -2.52332       -0.00130
H         -4.88276       -1.28111       -0.00039
H         -5.12771        1.06666       -0.00067
H         -3.34080        2.65582        0.00110
