36
Coordinates from ORCA-job ./opt_b97-3c_parallel
N          6.00862        1.35409        0.26181
C          4.99327        0.83821        0.16195
C          3.69603        0.20672        0.07179
C          3.96592       -1.15848       -0.00977
C          3.06823       -2.28561       -0.08963
C          1.68087       -2.27277       -0.08333
N          1.38381       -3.33173       -0.15270
H          1.99667       -4.13037       -0.30562
H          0.43651       -3.67491       -0.29550
C          0.91520       -1.06471       -0.03013
C          1.21107        0.26144        0.00028
C          2.42320        0.91965        0.06605
N          2.55262        2.01279        0.15535
H          3.48949        2.37888        0.31329
H          1.92255        2.80436        0.26100
C         -0.14640        0.61791       -0.01992
C         -0.48533       -0.76503       -0.01519
C         -1.70027       -1.53149        0.03656
C         -1.58652       -2.97249        0.09610
N         -1.56426       -4.11458        0.15327
C         -2.93155       -0.85879        0.07239
N         -3.79172       -1.57360        0.14700
H         -3.75762       -2.57460        0.33515
H         -4.76797       -1.29848        0.24647
C         -3.22626        0.51910        0.02237
C         -4.64033        0.89251        0.04791
N         -5.75371        1.15404        0.06713
C         -2.41849        1.67196       -0.05642
N         -2.78372        2.72896       -0.11439
H         -2.28787        3.59693       -0.31371
H         -3.77664        2.93751       -0.20861
C         -0.95231        1.74538       -0.06257
C         -0.15373        2.94381       -0.16286
N          0.12563        4.00298       -0.49226
H          3.61298       -3.23222       -0.14513
H          5.00541       -1.48601       -0.01236
