28
Coordinates from ORCA-job ./opt_b97-3c_parallel
N         -1.44786       -3.75445        0.00618
C         -1.47652       -2.61391        0.00209
C         -1.56167       -1.18878       -0.00326
C         -0.34809       -0.40166       -0.00098
C         -0.04463        0.98619       -0.00417
N         -0.81653        2.12459       -0.01294
C         -2.15017        1.76872       -0.01720
N         -2.59717        2.78143       -0.02486
H         -3.59555        2.99369       -0.07587
H         -2.14773        3.69847        0.01331
N         -3.16036        0.81780       -0.01696
C         -2.87815       -0.55579       -0.00992
N         -3.92904       -0.91816       -0.01178
H         -4.92995       -0.70355       -0.01027
H         -3.89998       -1.94244       -0.01014
C          1.35491        0.67463        0.00169
C          1.05714       -0.73336        0.00462
C          1.82346       -1.86646        0.00830
C          3.15567       -1.78261        0.01036
C          3.78182       -0.56547        0.00990
N          3.78611        0.82480        0.00731
C          2.55184        1.37501        0.00264
N          2.97873        2.40038        0.00101
H          2.50069        3.30085        0.03318
H          3.96965        2.65988       -0.02157
H          4.86046       -0.79345        0.01299
H          3.75187       -2.69474        0.01276
H          1.35429       -2.84835        0.00880
