34
Coordinates from ORCA-job ./opt_b97-3c_parallel
N          5.88008        1.22994       -0.15689
C          4.82579        0.79456       -0.09603
C          3.51770        0.20818       -0.03909
C          3.74217       -1.16021       -0.02089
N          3.05820       -2.32712        0.02073
C          1.67326       -2.40841        0.04107
N          1.56427       -3.50581        0.07041
H          0.65915       -3.74019        0.47692
H          2.08091       -4.38304        0.00991
C          0.84453       -1.24825        0.02110
C         -0.56885       -1.04171        0.01336
C         -0.36010        0.36113        0.01420
C         -1.25027        1.48322        0.02558
C         -0.66232        2.80014        0.06195
N         -0.23885        3.86106        0.10003
C         -2.62919        1.22510        0.01495
N         -3.24050        2.15897        0.03656
H         -4.25972        2.19001        0.04202
H         -2.92836        3.12613        0.11736
C         -3.35367        0.01508       -0.02339
C         -4.80745        0.01041       -0.05076
N         -5.94907        0.01818       -0.10005
C         -2.99215       -1.34561       -0.04394
N         -3.49269       -2.34265       -0.08069
H         -4.47465       -2.07192       -0.03179
H         -3.49270       -3.31190       -0.39387
C         -1.63940       -1.88560       -0.01064
H         -1.41037       -2.95778       -0.02056
C          1.06918        0.14571        0.01203
C          2.26291        0.93497       -0.01233
N          2.29384        2.03580       -0.03141
H          3.18759        2.52222       -0.09580
H          1.58442        2.76541        0.02482
H          4.65983       -1.76961       -0.03622
