29
Coordinates from ORCA-job ./opt_b97-3c_parallel
N          5.35491        0.05023       -0.00073
C          4.21203        0.05267        0.00936
C          2.77323        0.09100        0.00300
C          2.01028       -1.13614        0.01516
N          0.94983       -1.45186        0.00979
C         -0.02016       -0.91586        0.00218
C         -0.20382        0.52825       -0.00551
C          0.70128        1.56831       -0.01603
C          2.14273        1.33858       -0.01692
N          2.57742        2.35927       -0.03512
H          3.57929        2.23102       -0.16900
H          2.37701        3.33218       -0.25889
H          0.30001        2.58209       -0.02995
C         -1.56002        0.40810       -0.01170
C         -1.46416       -0.93846       -0.00997
C         -2.39668       -2.03568       -0.02682
N         -3.77023       -1.80551       -0.05394
C         -4.18886       -0.48699       -0.05240
C         -3.98076        0.86090       -0.03553
C         -2.68571        1.29769       -0.02253
N         -2.54789        2.39298       -0.01874
H         -1.72835        2.80561        0.42176
H         -3.33617        3.00099        0.19411
H         -4.82691        1.54529        0.02001
H         -5.24650       -0.78812       -0.08647
H         -1.99809       -3.06104       -0.02786
N          2.37938       -2.18382        0.03230
H          3.39093       -2.11962        0.12448
H          2.13671       -3.16953        0.10404
