27
Coordinates from ORCA-job ./opt_b97-3c_parallel
N         -5.43798       -0.03410       -0.00017
C         -4.31863        0.20148        0.00020
C         -2.90685        0.45511        0.00030
C         -2.74942        1.83473       -0.00098
N         -1.76602        2.76486       -0.00189
C         -0.41579        2.44531       -0.00119
C          0.02622        1.09277        0.00093
C         -0.56938       -0.12946        0.00152
C         -1.87128       -0.56049        0.00127
N         -2.15928       -1.62536        0.00179
H         -1.69720       -2.53265        0.00133
H         -3.16059       -1.81108        0.00089
C          0.74456       -0.75223        0.00238
C          1.30706        0.48219        0.00182
C          2.64237        0.95859        0.00121
C          2.97109        2.34809        0.00034
N          3.26232        3.45319       -0.00059
C          3.65122        0.02234        0.00226
N          3.73738       -1.32609        0.00320
C          2.67070       -2.23361        0.00297
C          1.23898       -2.03388        0.00247
C          0.43333       -3.21291        0.00225
N         -0.17837       -4.17839        0.00302
H          3.12469       -3.23630        0.00363
H          4.72214        0.27670        0.00251
H          0.21037        3.35007       -0.00199
H         -3.46405        2.67209       -0.00192
