28
Coordinates from ORCA-job ./opt_b97-3c_parallel
N          5.78632        1.20433        0.00140
C          4.72871        0.77177        0.00075
C          3.38922        0.26865        0.00032
C          2.29379        1.20418        0.00050
C          0.96973        0.69882        0.00007
C          0.40662       -0.53401       -0.00023
C          0.92819       -1.85752       -0.00019
N          0.27258       -2.74489       -0.00044
H         -0.67701       -3.11207        0.00018
H          0.88332       -3.56109       -0.00002
C          2.30079       -2.04229       -0.00012
C          3.34808       -1.12688        0.00019
H          4.31910       -1.61841        0.00012
H          2.64095       -3.07669       -0.00028
C         -0.90251        0.06087       -0.00022
C         -0.32433        1.29989       -0.00003
N         -0.81719        2.57691        0.00044
C         -2.18655        2.47750        0.00023
N         -3.39644        1.80481       -0.00013
C         -3.39902        0.44648       -0.00047
N         -4.50456        0.52877       -0.00063
H         -4.70763       -0.47305        0.00022
H         -5.41144        0.99528       -0.00041
C         -2.24628       -0.45232       -0.00017
C         -2.66927       -1.81831       -0.00002
N         -3.49080       -2.61069        0.00095
H         -2.16577        3.57871        0.00073
H          2.47484        2.27490        0.00072
