28
Coordinates from ORCA-job ./opt_b97-3c_parallel
N         -5.43783       -0.43563        0.00006
C         -4.30615       -0.28171       -0.00281
C         -2.98869        0.27083       -0.00157
C         -1.97552       -0.75410       -0.00159
C         -0.62429       -0.32371       -0.00112
C          0.00048        0.88078       -0.00091
C         -0.42202        2.23998       -0.00007
N         -0.02779        3.27136        0.00053
H         -0.33136        4.24441        0.00161
H          0.99384        3.30615        0.00144
N         -1.77789        2.54546       -0.00019
C         -2.86534        1.65732       -0.00092
H         -3.77701        2.27563       -0.00125
C          1.26670        0.21379       -0.00047
C          0.64374       -0.99311       -0.00098
C          1.07588       -2.35529       -0.00104
C          0.18540       -3.47412       -0.00166
N         -0.74526       -4.13662        0.00059
C          2.42285       -2.69060        0.00017
C          3.54223       -1.76538        0.00097
C          3.57485       -0.39304       -0.00008
C          2.63334        0.59343        0.00050
C          2.98958        1.97549        0.00103
N          3.20673        3.09711        0.00199
H          4.59529       -0.01245       -0.00158
H          4.50330       -2.27190        0.00241
H          2.71145       -3.73958        0.00084
H         -2.23143       -1.80944       -0.00202
