26
Coordinates from ORCA-job ./opt_b97-3c_parallel
N         -0.78092       -3.76903       -0.00752
C         -0.94171       -2.64012       -0.00393
C         -1.20516       -1.23661        0.00004
C         -0.12592       -0.29096        0.00478
C         -0.01749        1.07994        0.00818
N         -0.80978        2.15069        0.00534
C         -2.09502        1.65076        0.00078
N         -2.72829        2.55810       -0.00728
H         -2.29888        3.48536       -0.02406
H         -3.73337        2.73574       -0.02531
N         -2.99943        0.59442       -0.00117
C         -2.57823       -0.74586        0.00071
N         -3.56713       -1.25077       -0.00011
H         -4.58672       -1.18515       -0.01807
H         -3.37689       -2.25697        0.01996
C          1.40959        0.94860        0.00884
C          1.29777       -0.40860        0.00459
C          2.29370       -1.43722       -0.00118
C          3.61348       -1.06059       -0.00375
C          4.03203        0.25026        0.00333
N          3.49555        1.23176        0.00826
C          2.55046        1.82598        0.01044
H          2.48962        2.92467        0.01440
H          5.13334        0.25285        0.00096
H          4.37041       -1.84262       -0.01848
H          1.99150       -2.47952       -0.00604
