29
Coordinates from ORCA-job ./opt_b97-3c_parallel
N         -4.92061       -1.45961        0.00095
C         -3.94986       -0.85594        0.00141
C         -2.70772       -0.12923        0.00029
C         -2.99600        1.23917       -0.00004
C         -2.17021        2.35309       -0.00077
C         -0.79274        2.40470       -0.00140
N         -0.33190        3.40787       -0.00178
H          0.68776        3.42715       -0.00198
H         -0.64736        4.37554       -0.00285
C         -0.02733        1.27475       -0.00175
C          1.37843        1.04321       -0.00254
N          2.48956        1.84769       -0.00274
C          3.67144        1.21189       -0.00296
C          4.13459       -0.09298       -0.00288
C          3.36349       -1.31787       -0.00264
C          1.98158       -1.40976       -0.00223
C          1.62915       -2.79727       -0.00197
N          1.31013       -3.89495        0.00012
C          1.11589       -0.34635       -0.00206
C         -0.24438       -0.06861       -0.00129
C         -1.41212       -0.79578       -0.00036
N         -1.33587       -1.89830       -0.00005
H         -0.63554       -2.63750        0.00030
H         -2.24312       -2.36169        0.00037
H          3.97857       -2.21583       -0.00267
H          5.20937       -0.24483       -0.00302
H          4.40254        2.03431       -0.00315
H         -2.70016        3.30409       -0.00086
H         -4.04941        1.51413        0.00044
