32
Coordinates from ORCA-job ./opt_b97-3c_parallel
N          5.17010        1.85244       -0.19748
C          4.38590        1.06091        0.05576
C          3.10348        0.41158        0.04021
C          1.94693        1.19340        0.02293
N          1.75193        2.28424        0.01553
H          1.16577        3.11165       -0.06971
H          2.71406        2.61071       -0.08693
C          0.67208        0.51516        0.00300
C          0.28156       -0.79364       -0.00145
C          1.07313       -1.99080        0.01817
N          2.17201       -1.78373        0.03418
C          3.00887       -1.04214        0.04427
N          3.83263       -1.78232        0.05997
H          4.19562       -2.73281        0.10631
H          4.64574       -1.16840        0.04379
H          0.76995       -3.05011        0.02645
C         -1.06884       -0.49810       -0.00969
C         -0.70586        0.89206       -0.00430
N         -1.37650        2.05113        0.03779
C         -2.70999        1.97727        0.03121
N         -2.82706        3.07570        0.09426
H         -2.29102        3.94354        0.09165
H         -3.79942        3.35566        0.22423
C         -3.68591        1.02353       -0.03591
C         -3.50773       -0.34096       -0.02094
N         -4.48451       -0.86133       -0.02719
H         -5.46291       -0.58969       -0.12356
H         -4.47335       -1.88121       -0.07848
C         -2.29358       -1.13964       -0.00753
C         -2.13986       -2.56634        0.00227
N         -2.51021       -3.64390       -0.06420
H         -4.70579        1.41127       -0.12674
