33
Coordinates from ORCA-job ./opt_b97-3c_parallel
N         -4.80594        0.00387       -0.02538
C         -3.45934       -0.00076       -0.04471
C         -3.06878        1.31462       -0.03569
C         -1.73534        1.61670       -0.06618
N         -1.43358        2.91513        0.09731
H         -0.63464        3.19077        0.66237
H         -2.18160        3.57938        0.29296
C         -0.73656        0.69357        0.00313
C         -0.69127       -0.72672        0.05729
C         -1.69317       -1.75945        0.04785
N         -1.35889       -2.80913        0.07368
H         -2.24562       -3.31191        0.10303
H         -0.65161       -3.47256        0.38648
C         -3.06770       -1.31540       -0.00734
H         -3.80494       -2.11779       -0.02361
C          0.73322       -0.73576        0.05433
C          0.70166        0.69565       -0.01579
C          1.67716        1.64159       -0.12519
C          2.96382        1.17395       -0.13340
N          3.82684        1.86216       -0.22407
H          3.51054        2.81404       -0.41332
H          4.84662        1.92195       -0.21804
N          3.72949        0.01081       -0.06947
C          2.99516       -1.17035        0.01295
N          3.86051       -1.85696        0.09727
H          4.87855       -1.91735        0.06689
H          3.54793       -2.80758        0.30228
C          1.72068       -1.67286        0.03998
H          1.49915       -2.69750       -0.25265
H          1.44348        2.69363        0.02962
H         -3.79657        2.12267        0.02802
H         -5.33236       -0.81245       -0.33231
H         -5.32607        0.83456       -0.30268
