26
Coordinates from ORCA-job ./opt_b97-3c_parallel
N          2.06314        3.52714        0.00073
C          2.15519        2.38772        0.00172
C          2.20536        0.96253        0.00237
C          0.99529        0.18952        0.00159
C          0.69384       -1.14761        0.00184
N          1.31891       -2.31958        0.00246
C          2.65538       -1.99293        0.00314
N          3.71293       -1.10520        0.00368
C          3.48253        0.27334        0.00326
H          4.49623        0.70251        0.00378
H          3.23943       -2.92625        0.00356
C         -0.69948       -0.81234        0.00140
C         -0.39865        0.51851        0.00138
C         -1.15275        1.74276        0.00168
N         -2.55087        1.69870        0.00222
C         -3.18192        0.45855        0.00212
N         -4.13230        1.02571        0.00244
H         -4.92073        0.37923        0.00332
H         -4.54618        1.95813        0.00267
C         -3.14693       -0.91236        0.00180
C         -1.93183       -1.53901        0.00191
N         -1.93514       -2.64193        0.00215
H         -0.97924       -2.99930        0.00143
H         -2.54409       -3.45931        0.00264
H         -4.07146       -1.49328        0.00008
H         -0.73944        2.76343        0.00213
