27
Coordinates from ORCA-job ./opt_b97-3c_parallel
N         -3.86391       -1.56076       -0.16317
C         -2.89666       -0.63168       -0.07083
C         -1.66741       -1.21676       -0.06960
C         -0.56914       -0.32477       -0.02271
C         -0.51304        1.03853        0.01460
N         -1.30469        2.11571        0.03434
C         -2.68623        1.90058        0.01797
C         -3.40895        0.64080       -0.02871
H         -4.48789        0.77293       -0.02854
H         -3.26875        2.83299        0.04495
C          0.91509        0.92734        0.01625
C          0.85683       -0.42710       -0.01916
C          1.80775       -1.49657       -0.04511
N          1.51624       -2.55974       -0.06598
H          0.59256       -2.89983        0.19223
H          2.18020       -3.29393        0.17216
C          3.23075       -1.20114       -0.04229
C          3.83470        0.12094       -0.01869
C          3.27539        1.37257        0.01126
C          1.99782        1.83347        0.03335
H          1.79356        2.89932        0.05681
H          4.01400        2.17093        0.01405
H          4.91945        0.08130       -0.02849
H          3.92230       -2.03990       -0.06332
H         -1.48991       -2.28721       -0.11928
H         -3.69953       -2.50906        0.16867
H         -4.82877       -1.31616        0.04898
