29
Coordinates from ORCA-job ./opt_b97-3c_parallel
N         -6.10123       -0.61769       -0.01854
C         -4.95824       -0.59692        0.00080
C         -3.54572       -0.37548        0.00042
C         -2.80250       -1.55556        0.00031
C         -1.36793       -1.70016        0.00018
C         -0.77749       -3.00103       -0.00080
N         -0.27094       -4.02554       -0.00166
C         -0.57972       -0.58530        0.00049
C         -0.79856        0.75892        0.00019
C         -1.88042        1.58958       -0.00036
C         -1.87975        3.01960       -0.00111
N         -1.35446        4.03448        0.00150
C         -3.21662        1.04387        0.00000
H         -4.04601        1.74892       -0.00030
C          0.61782        0.98024        0.00062
C          0.83615       -0.34921        0.00090
C          1.99858       -1.16597        0.00182
C          3.24520       -0.56408        0.00237
C          4.27831       -1.55414        0.00329
N          5.13683       -2.30676        0.00403
C          3.58428        0.85439        0.00202
N          4.51638        1.45034        0.00250
H          5.22591        0.71598        0.00282
H          5.03140        2.33033        0.00319
N          2.79473        1.95978        0.00110
C          1.45559        2.12708        0.00034
H          1.17473        3.19094       -0.00005
H          1.88803       -2.24712        0.00233
H         -3.33656       -2.50374        0.00023
