25
Coordinates from ORCA-job ./opt_b97-3c_parallel
N          1.68195        2.58773        0.21026
C          1.74304        1.24913        0.14588
C          0.67197        0.41304        0.26606
C          0.52530       -1.00400        0.15595
C         -0.88460       -0.86585        0.14932
N         -1.92893       -1.72374       -0.10075
C         -3.15689       -1.16805       -0.13544
C         -3.71850        0.09636       -0.01822
C         -3.00516        1.34676        0.12158
C         -1.65738        1.54860        0.11718
C         -0.76528        0.54196        0.25214
H         -1.28643        2.56956        0.08885
H         -3.64644        2.21900        0.20018
H         -4.79978        0.18618       -0.04341
H         -3.71349       -2.10704       -0.27357
C          1.40938       -2.03828       -0.04607
C          2.81217       -1.71070       -0.01234
C          3.33944       -0.48057        0.27437
C          2.90727        0.68344       -0.29648
H          3.50595        1.16976       -1.06071
H          4.14919       -0.42600        0.99770
H          3.50343       -2.52968       -0.18445
H          1.07663       -3.05597       -0.22386
H          0.79742        3.06294        0.04313
H          2.42272        3.15206       -0.20088
