31
Coordinates from ORCA-job ./opt_b97-3c_parallel
N          5.72735       -0.01293        0.01518
C          4.58745       -0.09281        0.00784
C          3.15155       -0.15223        0.00110
C          2.47482        1.13276        0.00747
C          1.06016        1.42520       -0.00478
C          0.73565        2.81483        0.02578
N          0.51866        3.93623        0.06480
C          0.12260        0.41615       -0.02304
C          0.27379       -0.93975       -0.01471
C         -1.13550       -1.09429       -0.01982
C         -1.27077        0.32090       -0.03862
C         -2.36090        1.16241       -0.08174
N         -2.23351        2.48941       -0.20551
H         -3.01060        3.11760       -0.00437
H         -1.37491        2.96519        0.06749
C         -3.59106        0.63494       -0.05283
C         -3.81417       -0.71871        0.01359
N         -4.84285       -1.12572        0.07179
H         -5.38341       -1.99024        0.04102
H         -5.53130       -0.37999        0.17053
N         -3.37325       -2.03527        0.04118
C         -2.02909       -2.13857        0.00561
H         -1.61866       -3.15998        0.02542
H         -4.44403        1.31233       -0.11130
C          1.26158       -1.87791       -0.00060
C          2.64873       -1.45943       -0.00212
N          3.14856       -2.45195       -0.00358
H          4.13988       -2.21478        0.02360
H          3.10758       -3.46382       -0.11286
H          0.96633       -2.93076        0.00238
H          3.13088        2.00056        0.02266
