32
Coordinates from ORCA-job ./opt_b97-3c_parallel
N          3.34484        3.46666        0.05131
C          2.70259        2.52147        0.01564
C          1.89527        1.31443        0.01144
C          0.52916        1.61539       -0.01436
C         -0.45395        0.65147       -0.00480
C         -0.44336       -0.71307        0.02645
C          0.55302       -1.65926        0.05015
N          0.00473       -2.62752        0.06337
H          0.64915       -3.41174       -0.02367
H         -0.91654       -2.97803       -0.18819
C          1.90419       -1.30819        0.04666
C          2.70274       -2.52112        0.06271
N          3.39003       -3.39251       -0.21336
C          2.50479       -0.03209        0.03444
N          3.61924       -0.00106        0.04394
H          4.22066       -0.82063       -0.02119
H          4.22905        0.81374        0.00398
C         -1.87950       -0.69908        0.02345
C         -1.90815        0.65047       -0.01455
C         -2.89022        1.60939       -0.06428
C         -4.24410        1.31572       -0.09377
C         -4.83024       -0.01198       -0.04019
C         -4.22827       -1.23712        0.10025
C         -2.93188       -1.64957        0.06134
H         -2.69898       -2.70807        0.09819
H         -4.93095       -2.04490        0.29074
H         -5.91429       -0.00224       -0.08863
H         -4.95527        2.13216       -0.16861
H         -2.60753        2.65472       -0.10864
N          0.00326        2.59412       -0.03572
H          0.64504        3.38507       -0.02054
H         -0.91155        2.95622        0.22234
