34
Coordinates from ORCA-job ./opt_b97-3c_parallel
N         -6.51001       -0.93078       -0.01879
C         -5.39427       -0.67937       -0.04870
C         -4.00597       -0.32578       -0.07813
C         -3.03283       -1.37978       -0.10285
N         -1.95671       -1.61574       -0.13457
C         -1.10309       -0.91468       -0.11358
C         -1.14929        0.52440       -0.08697
C         -2.18717        1.43782       -0.08142
C         -3.57963        1.00291       -0.08477
N         -4.19433        1.92464       -0.07541
H         -5.17847        1.66167       -0.05455
H         -4.16095        2.90936       -0.33285
H         -1.95063        2.50011       -0.06618
C          0.26945        0.63559       -0.02996
C          0.34659       -0.76944       -0.05573
C          1.40552       -1.61084        0.05613
N          0.88468       -2.73749        0.58959
H         -0.10473       -2.94237        0.45537
H          1.39079       -3.61644        0.49125
C          2.69857       -1.21642       -0.17243
C          3.46221       -2.41438       -0.43451
N          4.09233       -3.35201       -0.61392
C          3.29330        0.12013       -0.08994
N          4.40233        0.12297       -0.18416
H          4.99048        0.95491       -0.16151
H          5.02874       -0.67923       -0.13462
C          2.64732        1.35914        0.08271
C          3.37877        2.60469        0.19882
N          4.01091        3.55439        0.12122
C          1.21044        1.64037        0.08241
N          0.64871        2.59548        0.14889
H         -0.21186        2.96294        0.54974
H          1.24483        3.39714       -0.05089
H         -3.33900       -2.43680       -0.08940
