29
Coordinates from ORCA-job ./opt_b97-3c_parallel
N         -0.90108       -4.12688        0.00243
C         -0.28675       -3.16299       -0.00026
C          0.46679       -1.93677       -0.00351
C         -0.17957       -0.69208       -0.00495
C          0.65202        0.50112       -0.00612
C         -0.71325        1.01955       -0.00359
C         -1.53787       -0.16612       -0.00304
C         -2.92743       -0.27605       -0.00094
N         -3.38026       -1.56380       -0.00128
H         -4.37549       -1.75691        0.00408
H         -2.72105       -2.33541        0.00072
C         -3.81416        0.79996        0.00156
C         -3.53442        2.17352        0.00178
C         -2.31806        2.87066       -0.00017
C         -1.01429        2.37809       -0.00251
H         -0.20634        3.10473       -0.00382
H         -2.40324        3.95502        0.00023
H         -4.41605        2.81029        0.00362
H         -4.87154        0.54373        0.00341
C          2.01411        0.80811       -0.00211
C          2.45194        2.18178        0.00315
N          2.78613        3.27447        0.00822
C          2.96557       -0.28517       -0.00160
N          2.75801       -1.37828       -0.00138
C          1.90517       -2.09522       -0.00344
H          2.48375       -3.01192       -0.00129
N          4.32259       -0.12334       -0.00748
H          4.93963       -0.92741        0.00242
H          4.72808        0.80658        0.00095
