28
Coordinates from ORCA-job ./opt_b97-3c_parallel
N          0.95687        4.20100       -0.00551
C          0.27233        3.28591       -0.00281
C         -0.38463        2.01772       -0.00249
C          0.05287        0.72653       -0.00178
C         -0.60647       -0.53567       -0.00200
C          0.66425       -1.19391       -0.00164
C          1.32065        0.06095       -0.00208
C          2.72096        0.37048       -0.00262
N          3.00657        1.43545       -0.00271
H          2.66709        2.39605       -0.00442
H          4.02395        1.49368       -0.00477
C          3.62320       -0.66671       -0.00285
C          3.25942       -1.99226       -0.00263
N          2.29475       -2.55344       -0.00261
C          1.18151       -2.53572       -0.00241
H          0.64137       -3.49482       -0.00256
H          4.11417       -2.68592       -0.00203
H          4.68808       -0.43778       -0.00367
C         -1.91760       -0.91679       -0.00225
C         -2.17493       -2.32635       -0.00306
N         -3.15222       -2.91809        0.00182
C         -2.94222        0.10203       -0.00239
N         -4.04858        0.12054       -0.00218
H         -4.98090        0.53394       -0.00142
H         -4.19772       -0.89139       -0.00063
N         -2.96987        1.50123       -0.00225
C         -1.80072        2.27359       -0.00239
H         -2.32314        3.24345       -0.00277
