30
Coordinates from ORCA-job ./opt_b97-3c_parallel
N          5.63682        2.22407       -0.10167
C          4.70238        1.57128       -0.03914
C          3.53663        0.74967       -0.00141
C          2.21565        1.32288        0.01111
C          1.10323        0.43252        0.01816
C          0.92014       -0.91518        0.02614
C          1.82871       -2.02387        0.05146
N          1.82184       -3.12941        0.07772
H          1.03736       -3.72541        0.34374
H          2.61464       -3.76748       -0.01407
N          3.15170       -1.76653        0.04161
C          3.84315       -0.60318        0.01340
H          4.86441       -1.01822        0.00412
C         -0.45542       -0.79905        0.01224
C         -0.31264        0.61083        0.01167
N         -1.14610        1.64920        0.02345
C         -2.48799        1.54284        0.02156
N         -2.62428        2.64254        0.05069
H         -2.32722        3.61711        0.11799
H         -3.64594        2.67706        0.07240
C         -3.28647        0.32315       -0.02191
C         -4.71088        0.50886       -0.04128
N         -5.83567        0.70626       -0.05375
C         -2.89481       -1.02800       -0.04399
N         -3.48882       -1.96575       -0.08484
H         -3.41879       -2.96901       -0.25655
H         -4.49002       -1.76514       -0.08682
C         -1.55619       -1.60529       -0.01181
H         -1.38351       -2.68577       -0.02201
H          2.07116        2.39935       -0.00312
