29
Coordinates from ORCA-job ./opt_b97-3c_parallel
N          4.46082        0.20303       -0.04869
C          3.35466        0.27243       -0.03583
N          2.92874       -1.07367       -0.03081
C          1.63776       -1.48731       -0.01627
N          1.76618       -2.58860       -0.01628
H          2.55393       -3.23821       -0.07066
H          0.94590       -3.19563        0.04715
C          0.48671       -0.73835       -0.00478
C          0.32655        0.65126       -0.00427
C         -1.07568        0.40702        0.01358
N         -2.18959        1.24402        0.03271
C         -3.41043        0.57391        0.03153
N         -4.07064        1.46162        0.06491
H         -4.04555        2.48228        0.05161
H         -5.06156        1.22680        0.14571
C         -3.80669       -0.73982       -0.00061
C         -2.87708       -1.74527        0.02273
N         -1.76588       -1.76352        0.02226
C         -0.93027       -1.03747        0.01170
H         -3.40293       -2.71233       -0.03243
H         -4.85869       -0.99449       -0.13042
C          1.21698        1.66818       -0.01699
N          0.72581        2.90684        0.14834
H         -0.21419        3.15231       -0.15976
H          1.31589        3.72834        0.00508
C          2.57706        1.50694       -0.02772
H          3.18510        2.40957       -0.03440
H          4.90051        1.12495       -0.09580
H          5.24845       -0.44818       -0.02031
