31
Coordinates from ORCA-job ./opt_b97-3c_parallel
N         -0.73923       -4.02231        0.12944
C         -1.01831       -2.91457        0.09837
C         -1.41717       -1.54233        0.05978
C         -0.51829       -0.49302        0.03373
C         -0.67253        0.87640       -0.01031
C          0.74494        1.02373       -0.01848
C          0.86410       -0.37892        0.02477
C          2.00249       -1.25692        0.00950
N          2.04827       -2.35818        0.01615
H          2.82258       -3.00594       -0.11342
H          1.19817       -2.91821        0.00756
C          3.36165       -0.74529       -0.09232
C          3.75088        0.64967       -0.12393
C          3.01518        1.79137        0.03273
C          1.68874        2.08401       -0.04988
N          1.31908        3.12353       -0.08319
H          1.95505        3.84097        0.25845
H          0.46444        3.19931        0.46488
H          3.64831        2.65300        0.24477
H          4.82375        0.77915       -0.22547
H          4.18633       -1.45371       -0.16307
C         -1.68219        1.80274       -0.04326
C         -3.02003        1.27971       -0.03228
N         -3.74665        2.11071       -0.07404
H         -4.74234        1.93756       -0.19743
H         -3.56248        3.04061       -0.44576
C         -3.43599       -0.02435        0.01857
C         -2.83093       -1.25137        0.04954
H         -3.47599       -2.12526        0.07273
H         -4.52074       -0.13181        0.03978
H         -1.47489        2.86997       -0.08166
