31
Coordinates from ORCA-job ./opt_b97-3c_parallel
N          4.63565        3.41432        0.01416
C          3.95261        2.49806        0.01167
C          3.13464        1.32437        0.00808
C          1.78868        1.63377        0.00277
C          0.83296        0.66626       -0.00033
C          0.78633       -0.67960       -0.00294
C          1.80254       -1.67164       -0.00107
C          3.13975       -1.30566        0.00713
C          3.96873       -2.47101        0.01185
N          4.66158       -3.38019        0.01747
C          3.75719        0.01176        0.01141
H          4.84391        0.01475        0.01728
H          1.49674       -2.71526       -0.00465
C         -0.58105       -0.71459       -0.01016
C         -0.60268        0.70490       -0.00658
C         -1.57072        1.64236       -0.01987
C         -2.90339        1.31877       -0.00197
N         -3.44946        2.28533        0.01365
H         -4.46005        2.15515        0.00761
H         -3.28716        3.28972        0.05146
C         -3.57064        0.01794       -0.00560
C         -5.01498       -0.03380        0.00538
N         -6.15777       -0.04446        0.02090
C         -2.99051       -1.26527       -0.01828
N         -3.44550       -2.28056       -0.02274
H         -4.45292       -2.13873        0.02961
H         -3.29413       -3.28585        0.02925
C         -1.57959       -1.64914       -0.02089
H         -1.26079       -2.69505       -0.02778
H         -1.22941        2.68151       -0.05686
H          1.46651        2.67223        0.00165
