28
Coordinates from ORCA-job ./opt_b97-3c_parallel
N         -3.86048       -1.38310        0.00815
C         -3.24726       -0.46533        0.01533
N         -2.00822       -1.11202        0.01870
C         -0.83784       -0.38060        0.02907
C         -0.52215        0.94571        0.03310
C         -1.30781        2.12072        0.02945
C         -2.66342        2.03275        0.03186
C         -3.52286        0.96435        0.01634
H         -4.58357        1.19861        0.00661
H         -3.16324        2.99934        0.05043
H         -0.81432        3.08850        0.02738
C          0.87133        0.63623        0.02521
C          0.56252       -0.69418        0.02018
C          1.40190       -1.85557       -0.00559
N          0.88212       -2.82978       -0.02489
H          1.63322       -3.51272       -0.12085
H          0.01240       -3.35362       -0.09256
C          2.76427       -1.66250       -0.01036
C          3.35652       -0.42006       -0.01776
N          2.97896        0.63353       -0.00783
C          2.12090        1.34954        0.00552
N          2.20722        2.44627       -0.00012
H          3.19182        2.70260       -0.05102
H          1.67479        3.27766       -0.24661
H          4.45265       -0.44863        0.07713
H          3.41861       -2.53236        0.01785
H         -3.73054       -2.39391       -0.01765
H         -4.86386       -1.22984        0.10080
