30
Coordinates from ORCA-job ./opt_b97-3c_parallel
N         -5.75751       -1.49005        0.06123
C         -4.75486       -0.94266        0.04059
C         -3.47889       -0.29254        0.01834
C         -2.28376       -1.09730        0.02399
C         -1.02304       -0.44949       -0.00110
C         -0.59934        0.82939       -0.01947
C         -1.26318        2.08529       -0.03282
C         -2.64343        2.11839       -0.03090
C         -3.58991        1.09964       -0.00858
H         -4.60770        1.48353       -0.01121
H         -3.06329        3.11898       -0.04782
H         -0.69299        3.00697       -0.04889
C          0.76797        0.37795       -0.01036
C          0.32646       -0.91442        0.00254
C          1.00520       -2.08223        0.04656
C          2.37051       -2.17891       -0.00922
N          2.74508       -3.21852       -0.03544
H          3.72355       -3.49815       -0.07139
H          2.19354       -4.06585       -0.15531
C          3.40431       -1.15491       -0.01743
C          3.19328        0.22952       -0.00104
N          4.20555        0.68525        0.00112
H          4.25756        1.70259        0.01187
H          5.13920        0.34170        0.21762
C          2.00996        0.96365       -0.00125
C          2.00149        2.40076        0.00430
N          2.04239        3.54323        0.01104
H          4.42231       -1.55754       -0.03991
H          0.40430       -2.98771        0.14058
H         -2.34352       -2.18128        0.04582
