36
Coordinates from ORCA-job ./opt_b97-3c_parallel
N          5.41703        1.65775        0.37844
C          4.46361        1.04542        0.23081
C          3.23629        0.29751        0.08313
C          1.98591        1.04682        0.06360
N          1.86559        2.14145        0.15135
H          1.35825        3.02190        0.21296
H          2.84432        2.38412        0.29841
C          0.74504        0.34058       -0.02270
C          0.42468       -0.97770       -0.06633
C          1.13493       -2.14211       -0.11967
N          0.60304       -3.10796       -0.19217
H          1.33465       -3.80333       -0.33639
H         -0.26660       -3.63674       -0.20158
C          2.51483       -2.23095       -0.13014
C          3.44199       -1.09384       -0.02701
N          4.40883       -1.64556       -0.04390
H          5.20926       -1.01612        0.00458
H          4.79507       -2.58112       -0.16132
H          2.92733       -3.24737       -0.20679
C         -0.97312       -0.62918       -0.04882
C         -0.65366        0.69032       -0.03097
C         -1.43374        1.88913       -0.05546
C         -0.90935        3.21865       -0.13680
N         -0.54870        4.29911       -0.21476
C         -2.81082        1.75878       -0.06518
N         -3.63375        0.68208        0.00799
C         -3.45661       -0.66648        0.06280
N         -4.55356       -0.82418        0.14299
H         -4.39514       -1.81794        0.33617
H         -5.56299       -0.70825        0.24556
C         -2.19161       -1.38170       -0.01295
C         -2.40379       -2.79814        0.01708
N         -3.07479       -3.58809        0.49833
N         -3.69210        2.43433       -0.11472
H         -3.12763        3.27565       -0.25738
H         -4.65554        2.76566       -0.18833
