29
Coordinates from ORCA-job ./opt_b97-3c_parallel
N         -5.71743       -2.24022        0.00338
C         -4.81783       -1.53507        0.00208
C         -3.66512       -0.68681        0.00098
C         -2.35746       -1.29319        0.00102
C         -1.21700       -0.45574       -0.00005
C         -1.02439        0.87605       -0.00084
C         -1.84466        1.96280       -0.00138
C         -3.22022        1.87080       -0.00133
C         -4.03276        0.66297       -0.00018
H         -5.09803        0.88384       -0.00021
H         -3.77432        2.80428       -0.00202
H         -1.40683        2.95432       -0.00211
C          0.40033        0.64857       -0.00037
C          0.18538       -0.69650        0.00021
C          1.03306       -1.74432        0.00208
C          2.40103       -1.63077        0.00156
N          2.79038       -2.67025        0.00182
H          3.80756       -2.72945        0.00241
H          2.44476       -3.62810        0.00253
C          3.27671       -0.45903        0.00108
C          4.70153       -0.64343        0.00115
N          5.83064       -0.82095        0.00152
C          2.84401        0.93274        0.00056
C          1.50027        1.46581       -0.00004
C          1.32881        2.88499       -0.00048
N          1.23107        4.02378       -0.00070
H          3.63860        1.67491        0.00048
H          0.54639       -2.72478        0.00355
H         -2.24440       -2.37294        0.00189
