23
Coordinates from ORCA-job ./opt_b97-3c_parallel
N         -1.68012       -2.45688       -0.00290
C         -1.71023       -1.35356       -0.00321
N         -2.85679       -0.74050       -0.00364
C         -3.29246        0.48479       -0.00311
C         -2.83069        1.78634       -0.00249
C         -1.40298        2.02474       -0.00243
C         -0.56432        0.93179       -0.00270
C         -0.67992       -0.44005       -0.00293
C          0.74370       -0.57198       -0.00257
N          1.51955       -1.65171       -0.00211
C          2.79987       -1.14476       -0.00130
N          3.72826       -0.12169       -0.00089
C          3.31472        1.21370       -0.00100
C          1.95234        1.71129       -0.00177
C          0.85798        0.78638       -0.00235
H          1.76591        2.78054       -0.00172
H          4.26025        1.77667       -0.00040
H          3.52932       -1.96987       -0.00097
H         -1.01908        3.04013       -0.00210
H         -3.51627        2.62907       -0.00221
H         -4.39330        0.46614       -0.00293
H         -2.20736       -3.32878       -0.00124
H         -0.69199       -2.71812       -0.00186
