25
Coordinates from ORCA-job ./opt_b97-3c_parallel
N          4.89164        1.92606        0.00465
C          3.90270        1.35573        0.00295
C          2.69788        0.58677        0.00090
C          1.41943        1.25716        0.00115
C          0.23326        0.46678       -0.00095
C         -0.01738       -0.85690       -0.00338
C          0.77702       -2.04075       -0.00457
N          2.12071       -1.89569       -0.00347
C          2.91039       -0.79259       -0.00119
N          3.73176       -1.54060       -0.00177
H          4.18457       -2.45612       -0.00160
H          4.50432       -0.87074       -0.00121
H          0.36985       -3.06391       -0.00655
C         -1.41055       -0.56057       -0.00396
N         -2.49723       -1.34690       -0.00569
C         -3.61704       -0.51533       -0.00482
N         -4.57500       -1.06387       -0.00644
H         -5.51635       -0.66856       -0.00690
H         -4.70394       -2.07542       -0.00792
N         -4.03964        0.81136       -0.00281
C         -2.99267        1.73161       -0.00049
N         -1.71230        1.97938        0.00076
C         -1.17099        0.80356       -0.00142
H         -3.49957        2.71030        0.00095
H          1.35966        2.34211        0.00284
