30
Coordinates from ORCA-job ./opt_b97-3c_parallel
N         -1.31808       -3.76904        0.02641
C         -1.51184       -2.64579        0.02280
C         -1.70450       -1.22981        0.01290
C         -0.55931       -0.35392       -0.00584
C         -0.41339        1.06937       -0.04385
C         -1.30642        2.09998       -0.06171
C         -2.59109        1.61723       -0.00368
N         -3.41771        2.35989        0.03598
H         -3.20985        3.32776        0.29325
H         -4.42855        2.37686       -0.12849
N         -3.49405        0.55315        0.02741
C         -3.00179       -0.71570        0.01773
N         -4.03449       -1.12958        0.02655
H         -5.04996       -1.00120        0.00761
H         -3.92308       -2.14760        0.01543
H         -1.03621        3.07784        0.33771
C          1.02255        0.86502       -0.05016
C          0.85812       -0.54963       -0.00617
C          1.72869       -1.61725        0.02740
N          3.07527       -1.55922        0.03419
C          3.57270       -0.26372       -0.01177
N          4.64561       -0.53859        0.01758
H          5.48472        0.04454        0.03246
H          5.00946       -1.49365        0.06651
N          3.46846        1.12588       -0.06729
C          2.19682        1.71592       -0.09310
N          2.45599        2.79327       -0.14170
H          3.33728        3.24176        0.12503
H          1.92783        3.54906       -0.58305
H          1.71704       -2.71928        0.06522
