25
Coordinates from ORCA-job ./opt_b97-3c_parallel
N          3.86065        1.28223        0.06848
C          2.90336        0.72997        0.00430
N          3.56207       -0.49032       -0.00359
C          2.69638       -1.57303       -0.04206
N          1.40382       -2.05918       -0.06649
C          0.48676       -1.02818       -0.06345
C          0.59963        0.40171       -0.05069
C          1.64719        1.27204       -0.02771
H          1.48028        2.34792       -0.02698
C         -0.84118        0.47360       -0.03240
C         -0.92932       -0.93061       -0.04291
C         -2.00250       -1.85394       -0.01394
N         -3.31441       -1.41271        0.03343
C         -3.77885       -0.09388        0.05557
C         -3.18333        1.16332        0.03759
C         -1.77301        1.47283       -0.00495
N         -1.42563        2.52141       -0.01721
H         -2.31243        3.01515       -0.11565
H         -0.70878        3.17694       -0.32029
H         -3.86505        2.01018        0.06263
H         -4.86998       -0.23261        0.09381
H         -1.89750       -2.94899       -0.01736
H          3.08796       -2.60226       -0.05885
H          4.86102        1.08670        0.05077
H          3.77692        2.27126        0.30166
