29
Coordinates from ORCA-job ./opt_b97-3c_parallel
N          5.49921        0.30141        0.01932
C          4.37375        0.10952        0.01340
C          2.94853       -0.06535        0.00486
C          2.33193        1.18931       -0.00846
N          1.05662        1.64405       -0.00104
C          0.04958        0.69732        0.02818
C          0.01920       -0.73118        0.02659
C          0.97246       -1.68934       -0.01556
C          2.30862       -1.37547        0.01129
N          2.88834       -2.31842        0.03237
H          3.90616       -2.25662       -0.00209
H          2.67417       -3.31395        0.08927
H          0.63364       -2.72650       -0.09040
C         -1.41943       -0.66814        0.02946
C         -1.37717        0.74715        0.03433
C         -2.39378        1.75289        0.02243
C         -3.71344        1.39850        0.04079
C         -4.12575        0.09180       -0.00771
N         -5.19020       -0.21229       -0.05885
H         -5.79298       -1.03445        0.00425
H         -5.83197        0.57036       -0.19232
N         -3.76820       -1.20796       -0.02904
C         -2.48383       -1.63833       -0.00411
H         -2.40342       -2.73640       -0.02428
H         -4.45046        2.19107        0.17195
H         -2.08629        2.79461        0.01531
N          2.49984        2.28889       -0.01819
H          3.51603        2.17973        0.00834
H          2.34937        3.29798       -0.05022
