26
Coordinates from ORCA-job ./opt_b97-3c_parallel
N          1.66914        3.29086        0.03393
C          1.62138        2.15031        0.01801
C          1.63332        0.72257       -0.00039
C          0.42130       -0.05346       -0.01251
C          0.12990       -1.39806       -0.01964
N          0.76311       -2.56727       -0.02927
C          2.09742       -2.23870       -0.02729
N          3.15259       -1.34404       -0.01546
C          2.91715        0.03517        0.00358
N          3.99731        0.27578        0.01856
H          4.01377        1.29077        0.13056
H          4.97367       -0.01815        0.00966
H          2.44322       -3.28448       -0.04598
C         -1.26491       -1.08091       -0.00969
C         -0.98030        0.25114       -0.00683
C         -1.84892        1.39491        0.00132
N         -1.48854        2.43696       -0.00501
H         -2.23941        3.12361       -0.06210
H         -0.62053        2.96226       -0.08294
C         -3.20846        1.17613        0.00800
C         -3.77514       -0.07688        0.03262
N         -3.38612       -1.12385        0.01918
C         -2.50541       -1.80906        0.00400
H         -2.46577       -2.90880        0.00706
H         -4.87439       -0.04271        0.07848
H         -3.88777        2.02884       -0.01952
