29
Coordinates from ORCA-job ./opt_b97-3c_parallel
N         -0.96243       -3.96890       -0.01342
C         -1.33401       -2.88938       -0.00372
C         -1.73612       -1.51962        0.01202
C         -0.77413       -0.53251        0.03710
C         -0.73736        0.84315        0.03796
N         -1.69182        1.84368       -0.00953
C         -2.97911        1.33513       -0.01122
N         -3.42081        2.34841       -0.07451
H         -4.43240        2.30044       -0.20453
H         -3.20713        3.34619       -0.04006
C         -3.62769        0.13094        0.04566
C         -3.13125       -1.14553        0.00442
H         -3.83560       -1.97297       -0.01683
H         -4.71060        0.18168        0.15592
C          0.69373        0.81382        0.04095
C          0.66833       -0.55027        0.03949
C          1.65955       -1.59939        0.01075
N          2.98695       -1.31262       -0.02491
C          3.36593        0.02708       -0.01083
N          4.41252       -0.33503       -0.07081
H          5.09217        0.41556       -0.19935
H          4.97451       -1.18791       -0.03536
C          3.05187        1.36242        0.03066
C          1.74885        1.78263        0.02802
N          1.47071        2.85076        0.03089
H          2.19143        3.56597        0.13460
H          0.58347        3.34974        0.04367
H          3.84841        2.10134        0.13626
H          1.64989       -2.70071       -0.00664
