27
Coordinates from ORCA-job ./opt_b97-3c_parallel
N          3.82919        3.27824       -0.00344
C          3.11474        2.38761       -0.00410
C          2.26157        1.22722       -0.00416
C          0.93994        1.65274       -0.00445
C         -0.10175        0.77429       -0.00421
C         -0.22386       -0.56452       -0.00301
C          0.67742       -1.65762       -0.00146
C          2.04387       -1.41907       -0.00153
C          2.67492       -2.71466       -0.00010
N          3.21027       -3.72440        0.00125
C          2.78104       -0.14723       -0.00299
N          3.88623       -0.25134       -0.00301
H          4.43270       -1.11147        0.00020
H          4.55505        0.51767       -0.00046
H          0.25893       -2.66215       -0.00066
C         -1.63285       -0.43956       -0.00252
N         -2.61027       -1.35550       -0.00085
C         -3.82556       -0.67649       -0.00109
N         -4.69108       -1.35915        0.00008
H         -4.59273       -2.37524        0.00025
H         -5.69629       -1.17736       -0.00063
N         -4.40996        0.58553       -0.00228
C         -3.48097        1.62427       -0.00290
N         -2.24063        2.03333       -0.00333
C         -1.54425        0.94053       -0.00358
H         -4.16357        2.49012       -0.00224
H          0.70525        2.71593       -0.00491
