33
Coordinates from ORCA-job ./opt_b97-3c_parallel
N          6.27483        0.69862       -0.14754
C          5.13859        0.68414       -0.02931
C          3.72914        0.43534       -0.00519
C          2.97379        1.68012        0.00731
C          1.52781        1.79246        0.03051
C          1.23126        3.19259        0.03197
N          0.78918        4.23443       -0.12360
C          0.70571        0.69513        0.03933
C          0.94961       -0.70052        0.03390
C         -0.45923       -0.94576        0.03593
C         -0.71594        0.43688        0.04203
C         -1.92013        1.21044        0.05485
N         -1.75887        2.30167        0.09052
H         -2.56652        2.92139        0.15481
H         -0.94455        2.91343        0.13870
C         -3.21787        0.55060        0.00552
C         -4.40391        1.35901       -0.01061
N         -5.37632        1.95842       -0.02725
C         -3.44773       -0.89042       -0.04681
N         -2.61875       -1.96412       -0.01376
C         -1.28041       -2.10114        0.03884
N         -1.39690       -3.19650        0.04494
H         -1.76522       -4.13477        0.19458
H         -0.38240       -3.28259        0.11318
N         -4.31018       -1.58353       -0.10349
H         -4.72739       -2.50263       -0.24900
H         -5.07282       -0.91352       -0.21106
C          2.08827       -1.45037        0.01969
C          2.05852       -2.88130        0.01484
N          1.69926       -3.96266       -0.06521
C          3.35257       -0.90243        0.00100
H          4.17616       -1.61597       -0.01356
H          3.55873        2.60017       -0.00423
