28
Coordinates from ORCA-job ./opt_b97-3c_parallel
N         -4.36558       -1.63676        0.07768
C         -3.41979       -0.68446        0.04823
C         -2.16370       -1.25251        0.04078
C         -0.93812       -0.50900        0.03687
C         -0.65626        0.87689        0.02690
N         -1.42884        2.00646        0.00964
C         -2.74734        1.60152        0.01890
C         -3.70409        0.62492        0.04003
H         -4.74875        0.93222        0.05336
H         -3.29755        2.55511        0.00436
C          0.73332        0.57753        0.02117
C          0.46194       -0.83225        0.03357
C          1.24291       -1.95057        0.03722
C          2.57431       -1.84227        0.02112
C          3.19373       -0.61284       -0.00267
N          4.30025       -0.54236       -0.03484
H          5.10752        0.08355       -0.03955
H          4.70218       -1.47963       -0.08658
N          3.15005        0.78313       -0.01382
C          1.90102        1.30483        0.00271
N          1.87559        2.41216       -0.00488
H          0.88605        2.67727       -0.00901
H          2.38644        3.29474        0.02993
H          3.16591       -2.75836        0.02937
H          0.77622       -2.93389        0.05772
H         -2.04548       -2.33352        0.04551
H         -4.19284       -2.55709       -0.32288
H         -5.34182       -1.39900       -0.09429
