31
Coordinates from ORCA-job ./opt_b97-3c_parallel
N         -5.28913       -1.69638       -0.00314
C         -4.21863       -1.29485       -0.00220
C         -2.88846       -0.74803       -0.00098
C         -2.08630       -1.87585       -0.00027
N         -0.77091       -2.14116        0.00084
C          0.05825       -1.04831        0.00134
C         -0.08686        0.37312        0.00014
C         -1.22045        1.15687       -0.00078
C         -0.93464        2.56454       -0.00166
N         -1.04245        3.70285       -0.00069
C         -2.52344        0.66547       -0.00102
N         -3.40557        1.34168       -0.00180
H         -3.37399        2.36005        0.00143
H         -4.38842        1.07492        0.00032
C          1.29878        0.46480        0.00024
C          1.47384       -0.88006        0.00119
C          2.58343       -1.78985        0.00061
N          2.42393       -2.88087        0.00117
H          1.45627       -3.20091       -0.00276
H          3.01305       -3.71094       -0.00603
C          3.90209       -1.35892       -0.00116
C          4.32699        0.02467       -0.00221
C          3.63336        1.20563        0.00019
C          2.29406        1.48877       -0.00107
N          2.09314        2.57373       -0.00288
H          2.79419        3.31182       -0.00295
H          1.18699        3.03679       -0.00084
H          4.31088        2.06272        0.00414
H          5.40708        0.13392       -0.00448
H          4.70295       -2.09498       -0.00227
H         -2.23152       -2.96723       -0.00037
