28
Coordinates from ORCA-job ./opt_b97-3c_parallel
N         -6.27783       -0.01901       -0.00073
C         -5.14201        0.10500       -0.00386
C         -3.72334        0.29708       -0.00214
C         -3.18350        1.64422       -0.00130
C         -1.88562        2.06106        0.00030
C         -0.83806        1.21211       -0.00082
C         -0.73275       -0.20215       -0.00151
C         -1.66211       -1.20784       -0.00150
C         -1.32643       -2.59812       -0.00163
N         -0.72238       -3.56818       -0.00088
C         -3.08665       -0.94768       -0.00184
H         -3.71268       -1.84021       -0.00225
C          0.69620       -0.12557       -0.00157
C          0.59337        1.27374       -0.00109
C          1.55323        2.32044       -0.00037
N          2.91817        2.04887       -0.00030
C          3.55408        0.79966       -0.00097
N          4.49977        1.37384       -0.00052
H          5.11169        0.55461       -0.00073
H          5.12040        2.18243       -0.00032
C          3.08847       -0.51584       -0.00145
C          3.98503       -1.63353       -0.00151
N          5.12360       -1.74224       -0.00060
C          1.73326       -1.00989       -0.00166
H          1.54062       -2.07917       -0.00179
H          1.13716        3.33972        0.00013
H         -1.69011        3.13079        0.00186
H         -3.94338        2.42089       -0.00189
