30
Coordinates from ORCA-job ./opt_b97-3c_parallel
N          6.43256        0.73184        0.00291
C          5.29108        0.68015        0.00218
C          3.85881        0.65908        0.00161
C          3.13862        1.91458        0.00169
C          1.79713        2.13171        0.00087
C          0.87983        1.14522        0.00104
C          0.92663       -0.27733        0.00106
C          2.01236       -1.12052        0.00097
C          2.00089       -2.55162        0.00066
N          1.87759       -3.68800        0.00027
C          3.39176       -0.65838        0.00120
H          4.14624       -1.44596        0.00116
C         -0.45636       -0.31804        0.00100
C         -0.54136        1.02823        0.00098
C         -1.57875        1.99417        0.00064
C         -2.90160        1.60370        0.00032
C         -3.81027        2.70804       -0.00015
N         -4.58332        3.55025        0.00012
C         -3.47682        0.27124        0.00033
C         -2.81195       -0.95754        0.00047
C         -3.85232       -1.95368        0.00038
N         -4.65515       -2.76752        0.00035
C         -1.47116       -1.32853        0.00062
N         -1.08857       -2.36511        0.00061
H         -1.85628       -3.03478        0.00038
H         -0.23011       -2.91249        0.00033
H         -4.56752        0.27811        0.00012
H         -1.28295        3.03998        0.00048
H          1.44450        3.16025        0.00025
H          3.77635        2.79411        0.00193
