28
Coordinates from ORCA-job ./opt_b97-3c_parallel
N         -4.62008       -0.63774        0.03429
C         -3.57714       -0.26516        0.01457
N         -2.93661       -1.39676        0.01568
C         -1.73228       -1.87755        0.00563
C         -0.76714       -0.89560       -0.00824
C         -0.81768        0.53795       -0.01718
C          0.62148        0.58032       -0.01789
N          1.57735        1.58498       -0.00776
C          2.87601        1.10125        0.00257
N          3.48721        2.02296        0.01724
H          4.50705        2.09289        0.03012
H          3.16388        2.99209        0.04795
N          3.67720       -0.03182        0.00548
C          2.95292       -1.21555        0.00018
N          3.66709       -2.06009       -0.00082
H          4.68850       -2.01446       -0.00016
H          3.45577       -3.05957       -0.02329
N          1.68880       -1.78929       -0.00373
C          0.66839       -0.85045       -0.01157
C         -1.83423        1.47726       -0.01953
N         -1.58521        2.55241       -0.03419
H         -2.41460        3.12622       -0.19506
H         -0.82271        3.22178        0.07097
C         -3.23248        1.07673       -0.00325
H         -4.00311        1.84676       -0.00295
H         -1.82862       -2.97503        0.01617
H         -5.15862       -1.50090       -0.06181
H         -5.32520        0.08753        0.17785
