29
Coordinates from ORCA-job ./opt_b97-3c_parallel
N         -0.88405       -3.61764        0.05679
C         -1.02315       -2.48319        0.02224
C         -1.17921       -1.05042       -0.01655
C         -0.03055       -0.24365       -0.03937
C         -0.20741        1.20176       -0.04314
C          1.24352        1.04751       -0.02083
C          1.41700       -0.40938       -0.03481
C          2.59493       -1.18145       -0.04114
N          2.48057       -2.54126       -0.07342
H          1.56626       -2.96223        0.05816
H          3.30258       -3.11171        0.08945
C          3.85031       -0.56727       -0.01697
C          4.00267        0.87047        0.01709
N          3.24771        1.68728        0.02727
C          2.13456        1.71809        0.01424
H          2.03913        2.79782        0.00849
H          4.91839        1.44977        0.00529
H          4.75913       -1.16453       -0.02171
C         -1.26671        2.10691        0.00951
C         -2.62178        1.60892        0.02861
N         -3.71306        2.42620        0.07301
H         -3.60279        3.42757       -0.03912
H         -4.64015        2.03033       -0.03486
N         -2.94211        0.54188        0.02149
C         -2.52078       -0.48926       -0.00727
N         -3.67077       -1.22646       -0.08898
H         -4.56767       -0.77530        0.05044
H         -3.62586       -2.23688       -0.01352
H         -1.08043        3.17740        0.04604
