29
Coordinates from ORCA-job ./opt_b97-3c_parallel
N         -5.23569       -1.62355       -0.02831
C         -4.14318       -1.28667       -0.03033
C         -2.77863       -0.82340       -0.02590
C         -2.00123       -1.98746       -0.04296
C         -0.56552       -2.09346       -0.04187
C          0.22659       -0.98623       -0.02680
C         -0.01128        0.41741       -0.01194
C          1.40975        0.64223       -0.00804
C          1.63731       -0.75286       -0.02113
C          2.86657       -1.49223       -0.02158
N          2.83487       -2.59480       -0.02657
H          2.03339       -3.15071        0.26375
H          3.66416       -3.16238        0.13710
C          4.05359       -0.79914       -0.00999
C          4.12792        0.57338       -0.00216
N          3.40710        1.42478        0.00487
C          2.33749        1.74199        0.00550
H          2.10654        2.81739        0.01472
H          5.16872        0.92324       -0.07525
H          4.99000       -1.35519       -0.00473
C         -1.15901        1.16540       -0.00227
C         -0.76110        2.54896        0.01504
N         -0.79510        3.69137        0.05629
C         -2.42920        0.60110       -0.00635
N         -3.26030        1.33736        0.00615
H         -4.25242        1.11174        0.05075
H         -3.18401        2.35219        0.05134
H         -0.11818       -3.08203       -0.05532
H         -2.49095       -2.96036       -0.05743
