32
Coordinates from ORCA-job ./opt_b97-3c_parallel
N          6.45587        0.59330       -0.02198
C          5.31250        0.55965       -0.01823
C          3.88149        0.47719       -0.01174
C          3.24530        1.71326       -0.02769
C          1.80932        1.90640       -0.01981
C          0.92903        0.84493       -0.00134
C          1.10019       -0.59002        0.01119
N          2.09937       -1.07111        0.01450
C          3.16590       -0.77648        0.00970
N          3.59413       -1.79926        0.02634
H          4.60190       -1.65006        0.03336
H          3.44805       -2.80564        0.06162
C         -0.35286       -0.64302        0.01081
C         -0.48936        0.74658        0.00243
C         -1.58943        1.66093        0.00079
N         -1.26167        2.71827        0.00245
H         -0.49424        3.37403        0.13054
H         -2.11738        3.27151        0.02007
C         -2.95984        1.17598        0.00040
C         -4.02589        2.13869        0.00064
N         -4.89576        2.88001        0.00745
C         -3.38610       -0.21619       -0.00245
C         -2.67657       -1.41609        0.00332
C         -3.61072       -2.50741        0.00147
N         -4.17024       -3.50342       -0.04328
C         -1.25484       -1.67034        0.01347
N         -0.77032       -2.66494        0.02005
H          0.20622       -2.95458        0.01978
H         -1.33599       -3.51147       -0.00120
H         -4.47382       -0.29091       -0.00841
H          1.43674        2.92439       -0.03360
H          3.84759        2.61733       -0.04633
