30
Coordinates from ORCA-job ./opt_b97-3c_parallel
N         -1.72800       -4.01506       -0.13113
C         -1.27034       -2.97628       -0.00574
C         -1.36044       -1.54901        0.00948
C         -0.21537       -0.80632        0.02709
C          1.17800       -1.08493        0.02466
C          1.49847        0.31184        0.06500
C          2.67984        1.00810        0.10131
N          2.64606        2.34518        0.19498
H          3.51518        2.87654        0.14527
H          1.93394        2.88403       -0.29141
C          3.83703        0.33919        0.07194
C          3.86698       -1.02621        0.00465
N          3.29000       -2.28394       -0.04029
C          1.94801       -2.22442       -0.01727
H          1.82819       -3.31779       -0.05810
H          4.88917       -1.43184       -0.03707
H          4.77978        0.88221        0.11278
C          0.07444        0.57532        0.06035
C         -0.72510        1.68653        0.07155
C         -0.33093        3.06267        0.09604
N         -0.65930        4.13751       -0.11213
C         -2.16548        1.53212        0.04018
N         -3.06326        0.45602        0.02070
C         -2.63485       -0.87838        0.01634
N         -3.71573       -1.10678        0.01413
H         -4.72732       -1.09225        0.13733
H         -3.45103       -2.09215        0.00429
N         -3.11146        2.11137        0.02394
H         -2.68096        3.03343       -0.07336
H         -4.11797        2.27595        0.01066
