30
Coordinates from ORCA-job ./opt_b97-3c_parallel
N         -3.84847       -2.26058        0.03577
C         -2.97992       -1.23604        0.02317
C         -1.70779       -1.74053        0.05993
C         -0.61138       -0.82834        0.00560
C         -0.56465        0.58764       -0.06648
C         -1.59585        1.57503       -0.08710
C         -2.89742        1.15648       -0.02871
N         -3.68882        2.23669        0.08147
H         -4.67616        2.12700        0.31234
H         -3.35832        3.08650        0.53419
C         -3.60908       -0.01738       -0.03888
H         -4.69568        0.01888       -0.10858
H         -1.31049        2.62231       -0.13480
C          0.86309        0.53881       -0.06436
C          0.81770       -0.89212        0.01390
C          1.77774       -1.87377        0.08280
N          3.11088       -1.67744        0.09664
C          3.46087       -0.33545        0.02781
N          4.55889       -0.46581        0.06578
H          5.01706       -1.37781        0.11771
H          5.32078        0.21136        0.11530
N          3.24924        1.03944       -0.05446
C          1.93080        1.50436       -0.10379
N          1.85856        2.60651       -0.16922
H          2.43582        3.44849       -0.21396
H          0.89869        2.93830       -0.28118
H          1.39916       -2.90715        0.13824
H         -1.48806       -2.80389        0.12576
H         -4.83358       -2.10283       -0.17440
H         -3.59092       -3.16788       -0.34892
