34
Coordinates from ORCA-job ./opt_b97-3c_parallel
N         -0.23446       -4.45137        0.25025
C         -0.65544       -3.39324        0.17145
C         -1.23137       -2.08651        0.09749
C         -0.49865       -0.91365        0.06805
C         -0.84692        0.42446        0.04813
C          0.55063        0.76234        0.05856
C          0.85348       -0.61521        0.05083
C          2.10254       -1.32994       -0.03515
N          2.23343       -2.42265       -0.10970
H          1.46474       -3.08771       -0.16207
H          3.08780       -2.96380       -0.22716
C          3.34417       -0.70467       -0.12522
C          3.54566        0.73220       -0.05362
N          4.62129        0.97193       -0.16586
H          5.40745        0.33193       -0.26161
H          5.01454        1.90863       -0.09847
C          2.73082        1.81221        0.18595
C          1.37187        1.92973        0.09135
N          1.01473        2.97283        0.13098
H          0.03293        3.21717        0.23670
H          1.54468        3.81598        0.34172
H          3.25730        2.71623        0.51435
H          4.23873       -1.32003       -0.26186
C         -2.00017        1.18176        0.00194
C         -1.98226        2.61516       -0.07428
N         -2.18555        3.66471       -0.47807
C         -3.25186        0.45363       -0.01490
N         -4.22711        0.97775       -0.10661
H         -4.17848        1.98065       -0.28150
H         -5.18378        0.69422       -0.30899
C         -3.46151       -0.90179        0.08593
C         -2.67150       -2.01502        0.10741
H         -3.17293       -2.97653        0.16250
H         -4.50542       -1.21213        0.19572
