32
Coordinates from ORCA-job ./opt_b97-3c_parallel
N          5.04130        1.82253       -0.00842
C          4.15589        1.09999       -0.00524
C          3.00606        0.22541       -0.00241
C          1.68223        0.83831        0.00327
N          1.45695        1.91849        0.00555
H          2.41193        2.27501        0.00453
H          0.86444        2.74673        0.01599
C          0.52513       -0.00307        0.00477
C          0.36606       -1.34775        0.00321
C         -1.05647       -1.19107        0.00310
N         -2.02363       -2.10837       -0.00201
C         -3.20875       -1.40972       -0.00719
N         -3.99894       -2.18390       -0.01212
H         -3.72014       -3.16682       -0.02302
H         -5.01975       -2.20130       -0.01445
N         -3.92156       -0.22025       -0.01090
C         -3.27275        1.02266       -0.00833
N         -4.19204        1.64595       -0.01515
H         -5.20331        1.79446       -0.03045
H         -3.79832        2.59123       -0.01672
C         -1.83678        1.28235       -0.00091
C         -1.42260        2.64793       -0.00119
N         -1.15536        3.75812       -0.00171
C         -0.90989        0.16960        0.00401
C          1.17662       -2.43751       -0.00126
C          2.55013       -2.37247       -0.00591
C          3.35507       -1.14168       -0.00656
N          4.36489       -1.60753       -0.01183
H          5.08699       -0.88733       -0.01913
H          4.86127       -2.49762       -0.00528
H          3.03404       -3.35573       -0.01050
H          0.71897       -3.42221       -0.00260
