34
Coordinates from ORCA-job ./opt_b97-3c_parallel
N          2.37558        4.18481       -0.48682
C          2.50725        3.09946       -0.15580
C          2.51890        1.66780       -0.07094
C          3.86012        1.30734       -0.08240
C          4.43843       -0.01848       -0.00570
C          3.84338       -1.26604        0.08160
C          2.49946       -1.60700        0.08827
C          2.45708       -3.03464        0.21788
N          2.41290       -4.16820        0.35615
C          1.45492       -0.71830        0.02509
C          1.47088        0.69357       -0.01580
C          0.02754        0.68358        0.00059
C          0.06278       -0.67814        0.01173
C         -0.99021       -1.66437       -0.02072
N         -0.49985       -2.65763       -0.05536
H          0.37214       -3.18046       -0.02974
H         -1.23340       -3.35412       -0.17232
C         -2.34942       -1.32877       -0.04600
C         -3.18261       -2.51808       -0.13113
N         -3.89565       -3.35122       -0.45438
C         -2.95554        0.01215        0.02480
N         -4.07196       -0.01035        0.03322
H         -4.67684       -0.82312       -0.07523
H         -4.68382        0.80343        0.06883
C         -2.34813        1.27885        0.08066
C         -3.15749        2.48119        0.19874
N         -3.80579        3.41473        0.32543
C         -1.01116        1.67593        0.04139
N         -0.47452        2.64555        0.06662
H         -1.22294        3.33001        0.15672
H          0.38668        3.18430        0.01193
H          4.57829       -2.06927        0.14477
H          5.52429       -0.00221       -0.01364
H          4.63176        2.07448       -0.14418
