27
Coordinates from ORCA-job ./opt_b97-3c_parallel
N          3.45620        1.96838        0.00407
C          2.72061        1.14445        0.00438
N          1.47550        1.75814        0.01620
C          0.43277        0.84482        0.01931
C          0.36012       -0.53318        0.00432
N          1.16514       -1.60991       -0.01597
C          2.49477       -1.21114       -0.01875
N          3.05206       -2.16558       -0.03952
H          4.05292       -2.35747       -0.10121
H          2.60572       -3.08434       -0.01509
N          3.15024       -0.08553       -0.00683
C         -1.07121       -0.41802        0.00373
C         -0.99179        0.93593        0.01680
C         -1.93215        2.01187        0.00769
C         -3.29869        1.77824       -0.01936
C         -3.94347        0.47691       -0.03020
C         -3.45621       -0.80591       -0.00336
C         -2.18522       -1.29853       -0.01442
N         -1.92094       -2.37070       -0.02944
H         -2.84249       -2.80723       -0.05165
H         -1.25052       -3.13579        0.00510
H         -4.24235       -1.56027        0.03626
H         -5.02752        0.54553       -0.05712
H         -3.95945        2.64051       -0.03677
H         -1.54135        3.02477        0.01257
H          4.47733        1.97737        0.01304
H          3.18077        2.95188        0.00077
