32
Coordinates from ORCA-job ./opt_b97-3c_parallel
N         -5.83111       -0.12317        0.03930
C         -4.69909        0.01695       -0.02414
C         -3.26823       -0.05062       -0.00790
C         -2.47800       -1.25525        0.01322
N         -1.39911       -1.49734        0.02550
C         -0.42068       -0.98465        0.02764
C         -0.31508        0.44978        0.01457
C         -1.28323        1.51762       -0.00543
C         -0.84141        2.87404       -0.01667
N         -0.41950        3.93519       -0.02469
C         -2.70412        1.22089       -0.01582
H         -3.35156        2.09596       -0.03166
C          1.09817        0.41950        0.02217
C          1.03537       -0.99681        0.03630
C          1.99279       -1.97466        0.04718
N          1.51950       -3.22972        0.08161
H          0.53216       -3.42258       -0.09368
H          2.06331       -4.01551       -0.27474
C          3.29373       -1.67337        0.04083
C          3.72703       -0.36862        0.02686
N          4.81877       -0.16824        0.02938
H          5.57337        0.51990        0.01543
H          5.29957       -1.06872        0.06970
N          3.46014        1.00180        0.01578
C          2.14377        1.31937        0.01405
N          2.36164        2.40546        0.00287
H          1.43836        2.84554        0.02366
H          3.01107        3.19301       -0.02569
H          4.01452       -2.49262        0.05632
N         -2.83951       -2.30169        0.02161
H         -2.69802       -3.30637        0.10759
H         -3.84793       -2.15416        0.01698
