33
Coordinates from ORCA-job ./opt_b97-3c_parallel
N          5.06622        1.90391       -0.01069
C          4.09555        1.30482       -0.01025
C          2.90799        0.49433       -0.01067
C          1.56898        1.07050        0.00074
N          1.39549        2.15852        0.01378
H          0.72007        2.92215        0.05650
H          2.30424        2.62444        0.01208
C          0.43884        0.17915       -0.00413
C          0.30360       -1.17671       -0.00713
C         -1.13218       -1.04789       -0.00245
N         -2.10103       -1.96925        0.00173
C         -3.30494       -1.28737        0.00344
N         -4.05998       -2.09792        0.01446
H         -5.07588       -1.97898        0.00376
H         -3.93289       -3.11127        0.05392
N         -4.02873       -0.10231       -0.00071
C         -3.39576        1.15026       -0.00950
N         -4.32556        1.76046       -0.01672
H         -5.34844        1.80918       -0.04049
H         -4.04064        2.74512       -0.01924
C         -1.95707        1.41828       -0.00643
C         -1.54420        2.78362       -0.01403
N         -1.26415        3.88941       -0.02045
C         -1.00688        0.31813       -0.00210
C          1.21328       -2.29036       -0.01396
N          1.14279       -3.39792       -0.01763
H          0.33088       -4.00366        0.11595
H          1.91296       -4.06150       -0.13621
N          2.54171       -2.02559       -0.02476
C          3.24420       -0.86240       -0.02484
N          4.13817       -1.52988       -0.03854
H          4.79927       -0.74652       -0.03187
H          4.75547       -2.34579       -0.06843
