29
Coordinates from ORCA-job ./opt_b97-3c_parallel
N         -5.00068       -1.39078       -0.02776
C         -3.94663       -0.95186       -0.02096
C         -2.64840       -0.34271       -0.01365
C         -1.42951       -1.13078       -0.00363
N         -1.32339       -2.22999        0.00322
H         -0.64151       -2.97411        0.14637
H         -2.23342       -2.69089       -0.02252
C         -0.18698       -0.41663       -0.00257
C          0.18993        0.88019        0.00102
C         -0.51889        2.11765        0.00058
N         -1.86884        2.08267       -0.01342
C         -2.74596        1.04949       -0.02113
N         -3.46579        1.89668       -0.03308
H         -3.82381        2.85270       -0.06515
H         -4.30185        1.30821       -0.04657
H         -0.15765        3.15800        0.00285
C          1.59758        0.54285       -0.00056
N          2.64005        1.31002       -0.00087
C          3.65281        0.48288       -0.01234
N          4.40404        1.30033       -0.00299
H          5.34422        0.90743       -0.06767
H          4.55072        2.30649        0.08832
C          4.10467       -0.83364       -0.02888
C          3.27302       -1.94967       -0.03725
C          1.88705       -1.95524       -0.02610
C          1.19487       -0.77201       -0.00785
H          1.35658       -2.90290       -0.03606
H          3.76136       -2.92055       -0.05382
H          5.17578       -1.02884       -0.03651
