27
Coordinates from ORCA-job ./opt_b97-3c_parallel
N          3.94075       -0.00425        0.01042
C          2.83205       -0.01311        0.00917
N          2.54745        1.34858        0.02274
C          1.20384        1.72837        0.02130
N          1.12108        2.83404        0.03716
H          0.17078        3.20623        0.11000
H          1.71250        3.66980        0.03106
C          0.21708        0.75936        0.00933
C          0.22297       -0.67962        0.00370
C         -1.20774       -0.66422        0.00464
C         -1.15472        0.69102        0.00279
C         -2.19724        1.65556       -0.01270
C         -3.50076        1.21064       -0.02099
N         -4.14158        0.02128       -0.00608
C         -3.56446       -1.25170        0.01497
C         -2.17502       -1.62774        0.01124
H         -1.94141       -2.68714        0.02316
H         -4.48421       -1.85770        0.02663
H         -4.44328        1.78024       -0.03990
H         -1.95577        2.71314       -0.02635
C          1.22771       -1.71902       -0.00682
N          1.12293       -2.82419       -0.02207
H          0.17669       -3.21035       -0.07573
H          1.72588       -3.65037       -0.02643
N          2.53969       -1.37505       -0.00530
H          4.57196        0.80038       -0.00543
H          4.57091       -0.80959        0.02510
