26
Coordinates from ORCA-job ./opt_b97-3c_parallel
N         -3.86876       -1.69579        0.01073
C         -3.03215       -0.64586       -0.02497
C         -1.72271       -1.07596       -0.02254
C         -0.57667       -0.21346       -0.01566
C         -0.45152        1.20527       -0.02238
N         -1.34376        2.24180       -0.06405
C         -2.60837        1.69604       -0.07774
C         -3.45546        0.62457       -0.05869
H         -4.52584        0.82237       -0.05924
H         -3.12754        2.66569       -0.11986
C          0.96228        1.02587        0.00028
C          0.79323       -0.33649       -0.00047
C          1.69857       -1.46028       -0.00546
N          1.63305       -2.56118       -0.02904
H          0.72792       -2.87758       -0.37409
H          2.27260       -3.34616       -0.14641
N          3.04196       -1.28093        0.02349
C          3.49942        0.03095        0.04540
C          3.34758        1.38809        0.04891
C          2.08753        1.90623        0.01076
H          1.90533        2.97684        0.00279
H          4.20668        2.04453        0.17966
H          4.59084       -0.11125        0.08210
H         -1.49565       -2.13878       -0.01333
H         -3.58778       -2.56855        0.45310
H         -4.85664       -1.55139        0.21689
