27
Coordinates from ORCA-job ./opt_b97-3c_parallel
N         -5.32415       -0.16116       -0.00677
C         -4.18552       -0.06054       -0.00390
C         -2.75076        0.02489       -0.00171
C         -2.05302       -1.25494       -0.00104
C         -0.63185       -1.48813        0.00064
C         -0.12324       -2.82326        0.00080
N          0.25449       -3.90221        0.00094
C          0.22820       -0.43207        0.00176
C          0.10198        0.92303        0.00193
C         -0.90743        1.83425        0.00112
C         -2.28017        1.35163       -0.00066
N         -2.81116        2.32795       -0.00099
H         -2.73209        3.34318       -0.00056
H         -3.80796        2.11710       -0.00120
H         -0.64341        2.89474        0.00162
C          1.52526        1.05033        0.00290
C          1.65714       -0.30494        0.00269
C          2.75417       -1.24001        0.00262
N          4.03559       -0.80373        0.00299
C          4.21451        0.57163        0.00342
C          3.79213        1.87041        0.00362
C          2.45371        2.13712        0.00315
H          2.06875        3.15167        0.00302
H          4.51471        2.68276        0.00218
H          5.30551        0.42877        0.00369
H          2.80382       -2.33919        0.00216
H         -2.67778       -2.14435       -0.00203
