37
Coordinates from ORCA-job ./opt_b97-3c_parallel
N          6.17566       -0.16274       -0.21021
C          5.03519       -0.15384       -0.12620
C          3.58665       -0.10933       -0.04491
C          3.09929       -1.42815       -0.10387
C          1.72250       -1.89803       -0.04277
C          0.68098       -1.02189        0.05413
C          0.55182        0.38151        0.10119
C          1.49058        1.38806        0.12872
C          0.93576        2.70911        0.26754
N          0.79380        3.81564        0.51983
C          2.87030        1.17132        0.07886
N          3.53896        2.06275        0.11970
H          4.55616        2.10123        0.15369
H          3.20404        3.01625        0.24808
C         -0.88815        0.20458        0.07249
C         -0.74196       -1.19908        0.05929
C         -1.61782       -2.21669       -0.05373
N         -1.15235       -3.45810        0.16643
H         -0.26344       -3.59127        0.64381
H         -1.78523       -4.19212        0.47833
C         -2.97050       -2.13465        0.05784
C         -3.80752       -0.94109       -0.00308
N         -4.85181       -1.31808        0.02638
H         -5.37831       -2.18496       -0.06119
H         -5.52306       -0.55965       -0.08446
C         -3.42653        0.47702       -0.11970
C         -4.51960        1.41332       -0.26543
N         -5.37887        2.15241       -0.41390
C         -2.06494        1.02772       -0.06318
N         -1.88534        2.11426       -0.14482
H         -1.13970        2.80380       -0.08958
H         -2.74878        2.64701       -0.23388
H         -3.49740       -3.08881        0.15463
H          1.45646       -2.95847       -0.09511
N          3.58034       -2.42893       -0.20260
H          3.40671       -3.37180       -0.54573
H          4.58042       -2.26590       -0.30847
