37
Coordinates from ORCA-job ./opt_b97-3c_parallel
N         -6.29555       -1.04809        0.00031
C         -5.19996       -0.72559       -0.00661
C         -3.79667       -0.36828       -0.01305
C         -3.07903       -1.56399       -0.03266
N         -1.77383       -1.90173       -0.03910
C         -0.83216       -0.88524       -0.03694
C         -0.85181        0.53534       -0.02411
C         -1.93953        1.39123       -0.00019
C         -1.67970        2.80484        0.03128
N         -1.73958        3.93630        0.17870
C         -3.28477        1.00616        0.00848
N         -4.13324        1.72882        0.03400
H         -5.14257        1.59126        0.06832
H         -3.98404        2.73588        0.10562
C          0.55024        0.52382       -0.02952
C          0.60733       -0.83857       -0.03305
C          1.64888       -1.83662       -0.01716
N          1.07497       -2.79260       -0.02183
H          0.22123       -3.33991       -0.09005
H          1.83218       -3.47677        0.01235
C          2.98848       -1.44079        0.01408
C          3.76815       -2.66813        0.06557
N          4.46525       -3.55313        0.25957
C          3.54385       -0.14871       -0.00160
N          4.66041       -0.17538        0.01785
H          5.26649        0.64549        0.03318
H          5.28159       -0.98275        0.06730
C          3.01140        1.15362       -0.03842
C          3.85435        2.34022       -0.06960
N          4.60528        3.19298       -0.21572
C          1.59335        1.53022       -0.03788
N          1.18747        2.55863       -0.05238
H          0.36984        3.16235       -0.02100
H          1.98061        3.19867       -0.02507
N         -3.21076       -2.67113       -0.04611
H         -4.23439       -2.67326       -0.02294
H         -2.95730       -3.65884       -0.05645
