28
Coordinates from ORCA-job ./opt_b97-3c_parallel
N          5.49065        0.74725        0.03184
C          4.36363        0.55768        0.02422
C          2.94005        0.36060        0.01985
C          2.12992        1.56379        0.04134
C          0.77644        1.70346        0.03531
C         -0.07788        0.66185        0.01482
C          0.06504       -0.75064        0.00957
C          1.17715       -1.54727        0.00169
C          2.52481       -0.98278       -0.00187
N          3.12609       -1.91581       -0.02289
H          3.11264       -2.91267       -0.23239
H          4.10872       -1.64656        0.00955
H          1.00540       -2.62707       -0.00909
C         -1.29947       -0.90845        0.00719
C         -1.48669        0.42730        0.00723
C         -2.62801        1.27616       -0.00800
N         -2.81657        2.36243       -0.02510
H         -1.95817        2.86369       -0.24993
H         -3.57564        3.03515       -0.12423
N         -3.91022        0.73739       -0.00617
C         -4.26965       -0.61872        0.00777
C         -3.53280       -1.79743        0.00973
C         -2.16438       -1.96057        0.00516
H         -1.75921       -2.96863        0.00659
H         -4.11379       -2.71552        0.01619
H         -5.35974       -0.77444        0.01270
H          0.37034        2.70665        0.13223
H          2.70695        2.48472        0.06345
