32
Coordinates from ORCA-job ./opt_b97-3c_parallel
N         -3.80160       -3.71173       -0.27778
C         -3.31886       -2.68907       -0.10681
C         -2.60711       -1.44379       -0.06863
C         -1.18162       -1.65821       -0.05390
C         -0.32463       -0.51734       -0.03575
C         -0.46341        0.83010       -0.00628
C         -1.63168        1.66068        0.03114
N         -1.34315        2.72868        0.08016
H         -2.26086        3.17265        0.14770
H         -0.68333        3.40867        0.44471
C         -2.89603        1.07847       -0.00139
C         -4.06977        1.90971        0.01517
N         -4.73210        2.82357        0.19806
C         -3.31512       -0.25249       -0.04978
H         -4.39407       -0.41290       -0.06986
C          0.90508        1.06444        0.01481
C          1.09140       -0.34666       -0.00690
C          2.25384       -1.18622        0.05909
C          1.93293       -2.57944        0.10752
N          2.33410       -3.64953        0.05889
C          3.54177       -0.65519        0.06810
N          4.53492       -1.14831        0.10811
H          5.54640       -1.09986        0.23104
H          4.31184       -2.14569        0.17954
N          3.90838        0.69995       -0.03301
C          2.96950        1.73102       -0.01502
N          3.74464        2.51191       -0.16509
H          4.75874        2.62319       -0.22642
H          3.38420        3.45223       -0.34838
C          1.68065        2.17735        0.11587
H          1.34020        3.15201       -0.23122
H         -0.77204       -2.66336       -0.06873
