28
Coordinates from ORCA-job ./opt_b97-3c_parallel
N          5.74959        0.88350        0.00251
C          4.62109        0.70230       -0.00261
C          3.21633        0.43763       -0.00174
C          2.25607        1.50362       -0.00303
N          1.16808        1.69167       -0.00399
C          0.30493        1.00543       -0.00394
C          0.38450       -0.43666        0.00121
C         -1.02192       -0.57071       -0.00009
C         -1.14076        0.83904       -0.00957
C         -2.21713        1.68491       -0.02687
N         -1.91260        2.98996       -0.11121
H         -0.96723        3.33512        0.05873
H         -2.58840        3.72910        0.07854
C         -3.46670        1.21328       -0.00210
C         -3.72011       -0.13726        0.01796
N         -4.77288       -0.48472        0.01621
H         -5.46129        0.26796        0.00642
H         -5.31765       -1.34662        0.00510
N         -3.28806       -1.45989        0.01793
C         -1.94421       -1.59212        0.00636
H         -1.66480       -2.65675        0.00997
H         -4.29183        1.92641       -0.02427
C          1.43906       -1.32778        0.00425
C          1.34576       -2.75216        0.00723
N          0.87362       -3.79347       -0.00107
C          2.82720       -0.89491        0.00066
H          3.59959       -1.66143        0.00084
H          2.72041        2.50252       -0.00259
