32
Coordinates from ORCA-job ./opt_b97-3c_parallel
N         -0.99408       -3.65071        0.16194
C         -1.26750       -2.54218        0.10103
C         -1.53526       -1.13587        0.01918
C         -0.43511       -0.30496       -0.04366
C         -0.28429        1.06438       -0.02504
C         -1.07785        2.17973        0.02681
C         -2.49937        1.94464       -0.00252
N         -3.01254        2.92246        0.00932
H         -2.68548        3.82218       -0.33985
H         -4.02141        2.91124       -0.13339
C         -3.19081        0.76832       -0.14688
C         -2.86368       -0.55519        0.05268
N         -3.74883       -1.20904        0.17795
H         -3.74509       -2.22791        0.17262
H         -4.70545       -0.92329        0.38378
H         -4.20288        0.92636       -0.53384
H         -0.65302        3.17965        0.07253
C          1.13444        0.90165       -0.03404
C          0.93160       -0.50340       -0.06359
C          1.83054       -1.63468       -0.07915
N          2.02240       -2.72184       -0.09842
H          2.59470       -3.54635       -0.27615
H          1.06339       -3.06505       -0.02163
N          3.21222       -1.44821       -0.07683
C          3.68846       -0.14696       -0.03826
C          3.54911        1.20897        0.00732
C          2.29333        1.74671        0.01484
N          2.19542        2.84244        0.07591
H          2.95778        3.50439        0.21383
H          1.34251        3.32547        0.35528
H          4.43486        1.84414        0.04527
H          4.77457       -0.32665       -0.05414
