32
Coordinates from ORCA-job ./opt_b97-3c_parallel
N         -5.40864       -2.10362        0.15015
C         -4.54389       -1.36012        0.08726
C         -3.42358       -0.46604        0.00953
C         -2.14227       -1.02784       -0.04452
N         -1.81997       -2.09214       -0.05210
H         -2.79363       -2.39579       -0.06143
H         -1.28896       -2.95948       -0.10840
C         -0.98523       -0.27265       -0.05081
C         -0.66803        1.04041       -0.02452
C         -1.51527        2.18084       -0.01587
N         -1.01412        3.16390        0.04355
H         -1.80603        3.61749        0.50172
H         -0.51305        3.91480       -0.43094
C         -2.86862        2.03794       -0.12035
C         -3.70924        0.96208        0.01508
H         -4.76966        1.19265        0.08669
H         -3.40610        2.95550       -0.36286
C          0.75740        0.81809        0.01498
N          1.70163        1.69804        0.07049
C          2.78067        0.97636        0.16177
N          3.30942        1.96059        0.19025
H          4.27222        1.93341       -0.15800
H          3.16927        2.94240        0.44866
C          3.33043       -0.30593        0.20984
C          4.72166       -0.63888        0.32510
N          5.24474       -0.51424       -0.68333
C          2.55460       -1.55263        0.13685
N          1.20287       -1.66554        0.03815
C          0.42636       -0.51382       -0.01586
N          2.53827       -2.66504        0.12505
H          3.46105       -3.02363       -0.13399
H          1.98226       -3.50753        0.29553
