25
Coordinates from ORCA-job ./opt_b97-3c_parallel
N          4.73576        0.29254        0.09964
C          3.39770        0.18521        0.02107
C          2.90809        1.46798        0.02118
C          1.50525        1.79174        0.01833
C          0.58572        0.69283        0.01294
C          0.73850       -0.73307        0.00742
C          1.79714       -1.58843        0.00530
C          3.09097       -1.15231        0.03723
H          3.87579       -1.90516        0.08561
H          1.60710       -2.65919        0.01397
C         -0.69641       -0.83052       -0.00084
N         -1.56597       -1.85106       -0.01414
C         -2.90993       -1.71027       -0.02291
N         -3.68742       -0.54982       -0.02166
C         -3.05409        0.67901       -0.01105
N         -3.87880        1.41131       -0.01280
H         -3.75688        2.42322        0.00125
H         -4.88450        1.24607       -0.01830
N         -1.90555        1.43862        0.00060
C         -0.83084        0.58324        0.00544
H         -3.47646       -2.65469       -0.03284
H          1.16339        2.82175        0.01916
H          3.57038        2.33192        0.02200
H          5.19862        1.17632       -0.10708
H          5.33569       -0.46023       -0.23433
