28
Coordinates from ORCA-job ./opt_b97-3c_parallel
N         -4.05417       -3.28059       -0.00085
C         -3.30108       -2.42052       -0.00092
C         -2.38354       -1.31042       -0.00051
C         -1.10610       -1.84224       -0.00130
C         -0.00970       -1.04346       -0.00159
C          0.24895        0.28824       -0.00088
C         -0.56615        1.44836        0.00011
C         -1.94871        1.31251        0.00035
C         -2.47225        2.65434        0.00059
N         -2.92152        3.70559        0.00056
C         -2.78767        0.10298       -0.00003
N         -3.88367        0.27911        0.00001
H         -4.35699        1.18102        0.00061
H         -4.60924       -0.43584        0.00028
H         -0.07511        2.41926        0.00015
C          1.65712        0.03519       -0.00169
C          1.39922       -1.30185       -0.00258
N          2.20850       -2.41202       -0.00311
C          3.52181       -1.98485       -0.00325
C          4.46401       -0.99232       -0.00316
C          4.15524        0.31131       -0.00206
C          2.86862        0.80111       -0.00097
C          2.76615        2.22689        0.00238
N          2.70320        3.36838       -0.01023
H          4.98343        1.01870       -0.00229
H          5.51338       -1.27863       -0.00410
H          3.96713       -2.99106       -0.00366
H         -0.94204       -2.91842       -0.00195
