30
Coordinates from ORCA-job ./opt_b97-3c_parallel
N          4.96530        2.57408        0.00661
C          4.12598        1.79801        0.00087
C          3.10278        0.79806       -0.00120
C          1.84741        1.38350       -0.00433
C          0.72166        0.62018       -0.00419
C          0.44064       -0.69022       -0.00463
C          1.31412       -1.81574       -0.00829
N          1.13398       -2.90844       -0.01387
H          0.28661       -3.47478       -0.03184
H          1.89654       -3.58967       -0.02675
N          2.70870       -1.77095       -0.00609
C          3.45248       -0.62224        0.00021
N          4.34451       -1.27139        0.00123
H          4.96965       -0.46385        0.00723
H          4.95571       -2.08743        0.01159
C         -0.98976       -0.46873       -0.00276
N         -1.98379       -1.29747       -0.00068
C         -3.06179       -0.55635        0.00487
N         -3.54568       -1.56322        0.01145
H         -4.50988       -1.22085       -0.00097
H         -3.65893       -2.57586        0.05023
C         -3.62089        0.72580        0.00570
C         -5.04908        0.83453        0.01258
N         -6.18960        0.86463        0.01813
C         -2.82702        1.94987        0.00056
C         -1.44082        2.00493       -0.00219
C         -0.68075        0.86768       -0.00273
H         -0.95156        2.97545       -0.00389
H         -3.38804        2.88096        0.00112
H          1.74168        2.46677       -0.00237
