25
Coordinates from ORCA-job ./opt_b97-3c_parallel
N          4.02293        0.40488        0.02688
C          2.92788        0.24664       -0.00101
N          2.68189       -1.12337       -0.04494
C          1.36747       -1.43566       -0.07227
N          1.33640       -2.54229       -0.10287
H          0.38966       -2.91799       -0.18315
H          1.94391       -3.36436       -0.11162
C          0.32621       -0.53149       -0.05864
C          0.26198        0.88316       -0.01880
C          1.24672        1.92952        0.02499
N          2.59986        1.59420        0.03396
H          0.91865        2.98070        0.05305
C         -1.16413        0.84858       -0.01942
C         -1.10694       -0.59576       -0.05964
C         -2.05086       -1.58068       -0.06558
C         -3.32064       -1.08394       -0.02215
N         -4.14071        0.02665        0.02517
C         -3.42785        1.21050        0.04054
C         -2.17755        1.75722        0.03768
H         -2.02186        2.81087       -0.18359
H         -4.34309        1.82131        0.06915
H         -4.24316       -1.68510        0.00015
H         -1.83844       -2.57260        0.32417
H          4.50355        1.30656        0.04237
H          4.76979       -0.28837        0.08247
