31
Coordinates from ORCA-job ./opt_b97-3c_parallel
N         -3.75609       -3.61804       -0.03932
C         -2.96746       -2.79295        0.00041
C         -2.39697       -1.46691        0.00273
C         -0.98676       -1.80711        0.00798
C         -0.06556       -0.80460        0.00672
C         -0.04425        0.55438        0.00310
C         -1.07273        1.55308        0.00495
N         -0.51466        2.51565        0.00672
H          0.28965        3.13970        0.01935
H         -1.32775        3.13299        0.02126
C         -2.41562        1.16756        0.00836
C         -3.26831        2.33438        0.01775
N         -3.91433        3.27650        0.03895
C         -2.98246       -0.19129        0.00268
N         -4.08907       -0.28091       -0.00012
H         -4.70952        0.52832       -0.00713
H         -4.69539       -1.10111       -0.02027
C          1.40111        0.55901       -0.00005
N          2.29579        1.56397       -0.01067
C          3.58090        1.04767       -0.01320
N          4.25514        1.92406       -0.02967
H          3.95082        2.89922       -0.05568
H          5.27514        1.96603       -0.05961
N          4.36399       -0.09890       -0.00657
C          3.61863       -1.27015        0.00536
N          4.38427       -2.06687        0.01302
H          5.40572       -2.06709        0.02760
H          4.11820       -3.05278        0.02271
N          2.33700       -1.79946        0.01082
C          1.36552       -0.81174        0.00629
H         -0.63209       -2.83800        0.00900
