31
Coordinates from ORCA-job ./opt_b97-3c_parallel
N          5.13935        2.24456        0.04778
C          4.25810        1.51764        0.01829
C          3.12386        0.63232        0.00134
C          1.84363        1.30156       -0.00287
C          0.64667        0.53820       -0.01147
C          0.36356       -0.77751       -0.01337
C          1.12617       -1.97139       -0.01469
C          2.50215       -1.89105       -0.01562
C          3.33673       -0.76001       -0.00752
N          4.35590       -1.20383       -0.00781
H          4.73944       -2.14675       -0.02371
H          5.15645       -0.57290        0.00777
H          2.94818       -2.89152       -0.02121
H          0.62942       -2.93628       -0.01820
C         -1.02548       -0.45859       -0.00967
C         -0.75225        0.88023       -0.00985
N         -1.25237        2.11167       -0.00615
C         -2.59563        2.05339       -0.00698
N         -2.74447        3.15019       -0.01710
H         -3.72902        3.41217       -0.06882
H         -2.22635        4.02884       -0.02881
C         -3.53660        1.04409       -0.01835
C         -3.43086       -0.34138        0.01458
N         -4.42500       -0.83118        0.04550
H         -4.35551       -1.84745       -0.02161
H         -5.41408       -0.63392        0.19622
C         -2.21199       -1.15006        0.00550
C         -2.19274       -2.58324        0.02352
N         -2.20818       -3.72522        0.02754
H         -4.55784        1.43430       -0.07664
H          1.79175        2.38647        0.00453
