32
Coordinates from ORCA-job ./opt_b97-3c_parallel
N         -5.16657       -2.07795       -0.07870
C         -4.35820       -1.27082       -0.05054
C         -3.30873       -0.28957       -0.00953
C         -2.09063       -0.95935        0.02288
C         -0.86275       -0.22749        0.02212
C         -0.52406        1.08619        0.00148
C         -1.28400        2.28240       -0.00494
C         -2.64160        2.21186        0.06293
C         -3.52966        1.15674       -0.01519
N         -4.57061        1.53216       -0.06497
H         -5.00551        2.45296       -0.08515
H         -5.33000        0.85607        0.00576
H         -3.07498        3.20317        0.22564
H         -0.76705        3.23637       -0.01940
C          0.86404        0.74070       -0.00342
C          0.53064       -0.57551        0.01729
C          1.26741       -1.79172        0.02793
C          0.52683       -3.01792        0.04929
N          0.84366       -4.11321       -0.03763
C          2.65412       -1.75677        0.02101
N          3.49571       -2.47914        0.02776
H          4.42966       -2.88979        0.07031
H          2.86424       -3.28568        0.00818
N          3.53554       -0.65964        0.00014
C          3.31815        0.73193       -0.01780
N          4.38719        1.02719       -0.02873
H          4.27753        2.04322       -0.07862
H          5.39735        0.87997       -0.00298
C          2.07794        1.47941       -0.01839
C          2.08335        2.90798       -0.03265
N          2.13936        4.04795       -0.04240
H         -2.04561       -2.04538        0.02549
