26
Coordinates from ORCA-job ./opt_b97-3c_parallel
N         -4.97785       -1.99867        0.02946
C         -4.09350       -1.27505        0.00275
C         -2.96863       -0.39545       -0.00591
C         -1.61926       -0.89669        0.00109
C         -0.55982        0.05693       -0.00257
C         -0.47615        1.40122       -0.01071
C         -1.42936        2.46001       -0.02332
N         -2.73459        2.13901       -0.02735
C         -3.35062        0.93738       -0.01945
H         -4.34636        1.40610       -0.02646
H         -1.16605        3.52829       -0.02994
C          0.96582        1.38583       -0.00105
N          1.75191        2.41132       -0.00055
C          2.88200        1.76601        0.01634
C          3.69344        0.64535        0.02997
C          3.16544       -0.64771        0.02785
N          4.00543       -1.37014        0.03665
H          3.70735       -2.34320       -0.01025
H          5.01851       -1.36924       -0.06643
C          1.81397       -0.99237        0.01818
C          1.30843       -2.33498        0.02003
N          1.10740       -3.45332       -0.10184
C          0.86384        0.00530        0.00606
H          4.77036        0.81387        0.04288
H          3.51327        2.66701        0.02381
H         -1.42487       -1.96357        0.01170
