31
Coordinates from ORCA-job ./opt_b97-3c_parallel
N         -6.39419       -0.74553        0.07171
C         -5.27905       -0.49794        0.06442
C         -3.89328       -0.14854        0.05336
C         -3.12972       -1.30628       -0.03843
N         -1.82223       -1.62376       -0.13791
C         -0.95969       -0.55383       -0.17803
C         -1.11589        0.84922       -0.02946
C         -2.15971        1.68399        0.17298
C         -3.44447        1.22685        0.13285
H         -4.24243        1.96136        0.18818
H         -1.97923        2.74758        0.30556
C          0.25471        0.96981       -0.05958
C          0.46378       -0.36716       -0.20015
C          1.61286       -1.23896       -0.17907
N          1.24329       -2.28072       -0.25452
H          1.80948       -3.10584       -0.06618
H          0.26849       -2.55509       -0.13687
C          2.89512       -0.72859        0.03689
C          3.94928       -1.68907        0.24476
N          4.87321       -2.34699        0.10390
C          3.22877        0.69181        0.09662
N          4.21818        1.13371        0.33859
H          4.87886        0.37240        0.18724
H          4.76825        1.98903        0.38741
C          2.51521        1.82346       -0.22900
C          1.19561        2.03073        0.04247
N          0.87565        3.07598        0.19436
H          1.42596        3.91918        0.04502
H         -0.04186        3.24273       -0.21416
H          2.93258        2.47767       -1.00291
H         -3.26364       -2.39715       -0.09414
