31
Coordinates from ORCA-job ./opt_b97-3c_parallel
N         -4.58779       -3.34578        0.00967
C         -3.81545       -2.50364        0.00600
C         -2.89487       -1.41013        0.00280
C         -1.57172       -1.81857       -0.00758
C         -0.54782       -0.92051       -0.01298
C         -0.43948        0.43041       -0.00870
C         -1.37240        1.50016        0.00112
C         -2.72850        1.22171        0.00860
C         -3.48370        2.43651        0.01718
N         -4.11949        3.38619        0.02429
C         -3.42598       -0.05502        0.00862
H         -4.50967        0.01561        0.01686
H         -1.00272        2.52164        0.00206
C          0.98199        0.32065       -0.01781
C          0.89150       -1.03535       -0.02198
C          1.76893       -2.09156       -0.02271
C          3.15169       -1.92905       -0.01874
N          3.77169       -2.84333       -0.00972
H          4.78961       -2.84807        0.03603
H          3.46853       -3.80323        0.13984
C          3.88068       -0.66592       -0.02251
C          3.35699        0.60602       -0.03810
N          4.37889        1.47563       -0.16730
H          5.31112        1.22978        0.15924
H          4.23052        2.46603        0.02297
C          2.11625        1.17854       -0.01935
C          1.73127        2.55813        0.00539
N          1.70158        3.70053        0.05330
H          4.96561       -0.78075       -0.01506
H          1.35028       -3.09545       -0.02068
H         -1.33018       -2.87864       -0.01235
