30
Coordinates from ORCA-job ./opt_b97-3c_parallel
N         -3.64888       -1.98273       -0.05323
C         -2.79689       -1.27619       -0.00692
N         -3.22342       -0.04131        0.03033
C         -2.81811        1.20196        0.05921
N         -3.70336        1.86691        0.11741
H         -3.58345        2.81736        0.47344
H         -4.70892        1.78900       -0.05409
C         -1.50364        1.64806        0.02875
C         -0.50735        0.69694        0.00184
C         -0.49188       -0.67760        0.00365
C         -1.46344       -1.65383       -0.00359
H         -1.17801       -2.70281       -0.02388
C          0.94069       -0.65562       -0.00854
C          0.93423        0.71194       -0.02122
C          1.94876        1.74404       -0.06093
N          2.15216        2.83058       -0.09169
H          2.98773        3.28447        0.28337
H          1.75174        3.51405       -0.73469
N          3.29884        1.38389       -0.08352
C          3.62403        0.03263       -0.05482
C          3.31023       -1.29691       -0.01128
C          1.98631       -1.63768       -0.00104
N          1.68100       -2.69704        0.03360
H          2.55087       -3.22861       -0.00835
H          0.96947       -3.36670        0.32146
H          4.09528       -2.04735        0.08983
H          4.72546        0.04351       -0.08049
H         -1.26024        2.70762        0.04382
H         -3.36768       -2.92935       -0.31484
H         -4.66445       -2.03923        0.04227
