27
Coordinates from ORCA-job ./opt_b97-3c_parallel
N         -5.37452       -1.00879        0.02743
C         -4.35306       -0.49557        0.02330
C         -3.06034        0.11205        0.01039
C         -1.86032       -0.68101        0.00715
C         -0.61116        0.00263       -0.00485
C         -0.19843        1.29651       -0.01398
C         -0.89888        2.53786       -0.01657
N         -2.24318        2.52226       -0.00887
C         -3.12187        1.49679        0.00274
H         -4.05197        2.08693        0.00527
H         -0.40669        3.52181       -0.02436
C          1.13622        0.95841       -0.01687
C          0.75487       -0.40666       -0.00826
C          1.45811       -1.64120       -0.00474
C          0.77247       -2.89474        0.00200
N          0.19639       -3.88286        0.01096
C          2.83835       -1.65437       -0.00854
C          3.73489       -0.59500       -0.01222
C          3.57160        0.78874       -0.01620
N          4.47392        1.42540       -0.01559
H          4.52162        2.43207        0.12837
H          5.42842        1.07572        0.04803
C          2.35610        1.57205       -0.02175
H          2.40431        2.65863       -0.02735
H          4.76915       -0.93401       -0.01156
H          3.30219       -2.63724       -0.00705
H         -1.90811       -1.76505        0.01495
