26
Coordinates from ORCA-job ./opt_b97-3c_parallel
N          4.51709        2.30965        0.00214
C          3.55794        1.69104        0.00131
C          2.39466        0.85953        0.00104
C          1.08514        1.46423        0.00055
C         -0.04380        0.60072       -0.00032
C         -0.23735       -0.74293       -0.00103
C          0.61061       -1.88812       -0.00152
N          0.22099       -2.92381       -0.00258
H         -0.80046       -2.84503       -0.00313
H          0.40957       -3.92696       -0.00426
N          1.94410       -1.65873       -0.00086
C          2.67196       -0.51020        0.00023
N          3.54405       -1.19921        0.00020
H          4.10219       -2.05476       -0.00124
H          4.23514       -0.44537        0.00080
C         -1.65637       -0.55552       -0.00181
N         -2.65560       -1.43041       -0.00307
C         -3.78720       -0.64284       -0.00364
N         -4.45366        0.56721       -0.00372
C         -3.74893        1.77512       -0.00260
C         -2.30971        1.95019       -0.00144
C         -1.45781        0.79850       -0.00111
H         -1.88351        2.94854       -0.00078
H         -4.47171        2.60494       -0.00290
H         -4.77267       -1.13407       -0.00479
H          0.96165        2.54372        0.00080
