26
Coordinates from ORCA-job ./opt_b97-3c_parallel
N         -5.19749       -1.39415       -0.03371
C         -4.08691       -1.12323       -0.03067
C         -2.69697       -0.74364       -0.02070
C         -1.97739       -1.94534       -0.00938
C         -0.61643       -2.14605        0.01476
C          0.28767       -1.13239        0.01703
C          0.17034        0.28190       -0.00822
C         -0.89139        1.14332       -0.02296
C         -0.50497        2.52807       -0.02609
N         -0.21546        3.63357        0.00025
C         -2.26584        0.66078       -0.02005
N         -3.05198        1.44489       -0.02276
H         -2.89742        2.44961        0.04175
H         -4.05773        1.29542        0.03569
C          1.60105        0.38329       -0.00448
C          1.71204       -1.02555        0.02802
C          2.84385       -1.90807        0.06426
N          4.18017       -1.51246        0.04440
C          4.31095       -0.17317        0.00091
N          3.85094        1.04274       -0.02835
C          2.60581        1.40018       -0.02355
H          2.44673        2.48838       -0.04435
H          5.40421       -0.05917       -0.05136
H          2.80291       -3.00644        0.10697
H         -0.24510       -3.16620        0.02444
H         -2.53725       -2.88020       -0.01687
