33
Coordinates from ORCA-job ./opt_b97-3c_parallel
N         -4.27774       -3.64445       -0.01120
C         -3.61728       -2.71235        0.00287
C         -2.74912       -1.55668        0.00305
C         -1.36353       -1.94865        0.00199
C         -0.31576       -0.99313       -0.00007
C         -0.17529        0.35952       -0.00102
C         -1.18758        1.38850       -0.00165
N         -0.60597        2.33274       -0.00307
H          0.18139        2.97767       -0.00168
H         -1.42032        2.94534       -0.00075
C         -2.54602        1.03382       -0.00163
C         -3.30333        2.27703       -0.00921
N         -3.91129        3.24467        0.00842
C         -3.19821       -0.21892        0.00138
N         -4.31350       -0.16394        0.00172
H         -4.97403       -0.94084       -0.00175
H         -4.88190        0.68295       -0.00014
C          1.22306        0.26386       -0.00113
C          1.09455       -1.15791       -0.00043
N          1.95084       -2.23067        0.00153
C          3.24302       -1.77433        0.00249
N          3.83477       -2.70920        0.00400
H          3.38748       -3.62809        0.00413
H          4.83621       -2.90776        0.00482
N          4.16020       -0.74113        0.00255
C          3.74694        0.59462        0.00084
N          4.77780        1.01215        0.00158
H          5.79681        0.92875        0.00197
H          4.60875        2.02245        0.00122
C          2.39067        1.13616       -0.00104
C          2.30064        2.56105       -0.00249
N          2.29336        3.70256       -0.00369
H         -1.10233       -3.00361        0.00227
