27
Coordinates from ORCA-job ./opt_b97-3c_parallel
N         -3.77829       -3.31086        0.00858
C         -3.02694       -2.44844       -0.00595
C         -2.10842       -1.34196       -0.00471
C         -0.75018       -1.63318       -0.00470
C          0.21928       -0.66364       -0.00363
C          0.28357        0.68387       -0.00206
C         -0.76311        1.66613        0.00034
N         -0.28995        2.67126        0.00130
H         -0.97000        3.43056       -0.00195
H          0.63209        3.10538       -0.00211
C         -2.10993        1.30308        0.00244
C         -3.02792        2.40935        0.01042
N         -3.76439        3.28406       -0.01242
C         -2.71183       -0.02095       -0.00091
H         -3.79929       -0.02137        0.00045
C          1.66829        0.79539       -0.00195
N          2.79255        1.54417       -0.00104
C          4.09453        1.18775       -0.00106
N          4.69136       -0.06186       -0.00164
C          3.84940       -1.14191       -0.00294
N          2.58634       -1.66145       -0.00397
C          1.64728       -0.65325       -0.00338
H          4.60434       -1.94230       -0.00305
H          4.75754        2.06614       -0.00020
N         -0.28582       -2.64103       -0.00591
H         -0.95211       -3.41198        0.00029
H          0.64481       -3.05749       -0.00132
