34
Coordinates from ORCA-job ./opt_b97-3c_parallel
N          4.70554        3.57574        0.00251
C          3.98849        2.68546        0.00125
C          3.11509        1.53782       -0.00013
C          1.71702        1.88793        0.00055
C          0.71296        0.88530       -0.00022
C          0.66103       -0.45910       -0.00169
C          1.68721       -1.44882       -0.00348
C          3.02277       -1.05060       -0.00329
C          3.64905       -2.35708       -0.00476
N          4.17959       -3.37005       -0.00541
C          3.62115        0.22292       -0.00178
N          4.72969        0.10611       -0.00219
H          5.28601       -0.74767       -0.00224
H          5.39084        0.88150       -0.00008
H          1.36776       -2.49086       -0.00461
C         -0.72522       -0.46765       -0.00082
C         -0.71236        0.95799        0.00078
C         -1.64019        1.93422        0.00260
C         -2.98759        1.68713        0.00332
N         -3.47154        2.68693        0.00482
H         -4.48609        2.59135        0.00460
H         -3.27805        3.68661        0.00561
C         -3.72312        0.42549        0.00295
C         -5.17010        0.48799        0.00529
N         -6.31063        0.56959        0.00924
C         -3.19388       -0.88295        0.00075
N         -3.79915       -1.81898        0.00001
H         -4.81331       -1.72324       -0.00067
H         -3.60131       -2.81873       -0.00247
C         -1.79769       -1.34093       -0.00110
C         -1.22668       -2.66516       -0.00354
N         -1.16796       -3.80703       -0.00483
H         -1.24493        2.95516        0.00428
H          1.41776        2.93233        0.00209
