28
Coordinates from ORCA-job ./opt_b97-3c_parallel
N         -2.85273       -4.02109        0.03737
C         -2.43435       -2.95769        0.03943
C         -1.94198       -1.61437        0.01840
C         -0.56481       -1.58423        0.02147
C          0.12406       -0.41308       -0.00179
C         -0.14636        0.91887       -0.03438
C         -1.39960        1.61900       -0.05213
N         -1.17955        2.70615       -0.07593
H         -0.41449        3.37639       -0.04716
H         -2.04269        3.24466       -0.01990
C         -2.61676        0.93377       -0.03308
C         -3.77943        1.77794       -0.04620
N         -4.70950        2.44240       -0.02641
C         -2.87044       -0.50006       -0.00377
H         -3.91980       -0.78382        0.00145
C          1.18932        1.28766       -0.04969
C          1.51584       -0.09836       -0.01556
C          2.75473       -0.82216       -0.01289
C          2.81976       -2.24823        0.00923
N          2.84187       -3.39094        0.01337
C          3.95234       -0.12589       -0.01825
N          4.25853        1.19004       -0.03510
C          3.16996        2.04082       -0.07784
C          1.87472        2.46419       -0.12010
H          1.55581        3.33776        0.44238
H          3.87368        2.88693       -0.06796
H          4.97455       -0.53340       -0.00355
H         -0.00128       -2.51356        0.04002
