36
Coordinates from ORCA-job ./opt_b97-3c_parallel
N         -3.86803       -3.37825       -0.43782
C         -3.18549       -2.54178       -0.06148
C         -2.39266       -1.32588       -0.01192
C         -1.03785       -1.66781       -0.00117
C         -0.01052       -0.66167        0.01528
C          0.01517        0.69371        0.00431
C         -1.02664        1.68517        0.02786
N         -0.48808        2.65883        0.03621
H         -1.16878        3.40824        0.14924
H          0.39463        3.01020        0.40112
C         -2.36428        1.28667        0.06194
C         -3.17669        2.48772        0.13794
N         -3.82556        3.42580        0.23213
C         -2.98129        0.02294        0.03467
N         -4.09574       -0.02100        0.04736
H         -4.70285        0.79677        0.04535
H         -4.70051       -0.83480       -0.05091
C          1.39727        0.72316       -0.02002
C          1.43585       -0.69429        0.01390
C          2.43148       -1.61067        0.03036
C          3.75418       -1.27424        0.09348
N          4.44398       -2.13244        0.19816
H          4.20703       -3.03916        0.59625
H          5.41731       -1.95447        0.43802
C          4.41009        0.01682        0.00410
C          3.80723        1.26930       -0.09809
N          4.48197        2.14124       -0.17197
H          5.44764        1.96407       -0.44156
H          4.22130        3.03200       -0.59051
C          2.40857        1.64926       -0.08652
H          2.15318        2.70410       -0.14674
H          5.50006       -0.02209        0.02666
H          2.14696       -2.65955        0.11093
N         -0.48032       -2.62946       -0.02126
H         -1.16544       -3.37161       -0.15275
H          0.40128       -2.98442       -0.38532
