32
Coordinates from ORCA-job ./opt_b97-3c_parallel
N         -4.56086       -3.23014        0.00343
C         -3.77730       -2.39536       -0.01316
C         -2.76610       -1.36556       -0.00816
C         -1.44054       -1.92902       -0.01295
C         -0.28361       -1.10898        0.00836
C         -0.00120        0.21267        0.01974
C         -0.86590        1.36633        0.01209
N         -0.14958        2.21733        0.01190
H         -0.84680        2.96003        0.00183
H          0.74308        2.70400        0.00434
C         -2.25604        1.18274        0.00651
C         -2.82631        2.52184        0.00653
N         -3.29758        3.56340       -0.00217
C         -3.05239        0.01698        0.00032
N         -4.14894        0.22700       -0.00089
H         -4.90275       -0.45953       -0.00001
H         -4.60002        1.14113       -0.00206
C          1.36685       -0.03850        0.00416
C          1.10250       -1.44936       -0.00998
C          1.84531       -2.57788       -0.12731
C          3.14133       -2.18274       -0.02572
N          4.18581       -1.27664        0.02919
C          3.89452        0.04598       -0.00120
N          5.00098        0.13853        0.00593
H          5.99160       -0.10462        0.00006
H          4.97105        1.15997        0.00147
C          2.56486        0.65846       -0.02012
C          2.84225        2.05961       -0.03354
N          3.37896        3.07003        0.00074
H          3.66683       -3.15077        0.00911
H          1.48501       -3.57430        0.12194
H         -1.31205       -3.00751       -0.02270
