30
Coordinates from ORCA-job ./opt_b97-3c_parallel
N          5.55258        0.26607       -0.04598
C          4.42672        0.08413       -0.03304
C          2.99942       -0.07505       -0.01376
C          2.37857        1.17928       -0.00255
N          1.09500        1.62464        0.00772
C          0.07905        0.67999       -0.00382
C          0.05979       -0.74653       -0.01156
C          1.02017       -1.69875        0.02032
C          2.35666       -1.38392       -0.00567
N          2.92287       -2.33434       -0.01839
H          2.77632       -3.34276       -0.06844
H          3.93169       -2.21565        0.08566
H          0.68732       -2.73267        0.15448
C         -1.37763       -0.69458       -0.02094
C         -1.35896        0.73427       -0.00866
C         -2.34817        1.70585        0.00363
N         -2.43537        2.81448        0.02087
H         -3.27199        3.40627        0.06938
H         -1.67686        3.50052        0.00239
N         -3.67843        1.46537        0.00079
C         -4.00220        0.11122       -0.01565
N         -3.76154       -1.25871       -0.03117
C         -2.43236       -1.68984       -0.03217
N         -2.55610       -2.79292       -0.04597
H         -3.39579       -3.36865        0.07275
H         -1.82233       -3.48449       -0.22322
H         -5.10625        0.09603       -0.01634
N          2.58864        2.27339       -0.00375
H          2.57040        3.29122       -0.09482
H          3.59006        2.06343        0.04580
