24
Coordinates from ORCA-job ./opt_b97-3c_parallel
N         -5.48017       -0.14004        0.00088
C         -4.33978       -0.06747        0.00091
C         -2.91604        0.06236       -0.00024
C         -2.06326       -1.09327        0.00004
N         -1.00800       -1.41773       -0.00044
C         -0.09614       -0.79419       -0.00101
C         -0.03305        0.64981       -0.00183
C         -0.97861        1.65150       -0.00200
C         -2.39602        1.35022       -0.00130
H         -3.07556        2.19753       -0.00115
H         -0.66919        2.69158       -0.00220
C          1.37501        0.65387       -0.00184
C          1.35557       -0.74474       -0.00128
C          2.35470       -1.65039       -0.00036
C          3.67972       -1.33207       -0.00176
C          4.32208       -0.03290       -0.00223
C          3.75607        1.23940       -0.00191
C          2.35767        1.60257       -0.00195
H          2.09578        2.65572       -0.00224
H          4.44660        2.07685       -0.00238
H          5.40629       -0.08955       -0.00324
H          4.38254       -2.15930       -0.00317
H          2.08254       -2.70295        0.00003
H         -2.59033       -2.05968        0.00080
