28
Coordinates from ORCA-job ./opt_b97-3c_parallel
N          3.92553       -0.00017       -0.00989
C          2.81691        0.00929       -0.00928
N          2.51898       -1.34978        0.01057
C          1.17206       -1.71807        0.01728
N          1.08596       -2.82352        0.03413
H          1.65682       -3.67326        0.02807
H          0.12519       -3.17148        0.08467
C          0.19154       -0.74243        0.00790
C          0.22034        0.70030       -0.01124
C         -1.20334        0.68195       -0.00496
C         -1.18526       -0.67451        0.00766
C         -2.22738       -1.65889       -0.00756
C         -3.57120       -1.32236       -0.05164
C         -4.12254        0.01930       -0.04050
C         -3.53873        1.25392        0.05767
C         -2.24069        1.64584       -0.00036
H         -1.99220        2.70225       -0.00778
H         -4.24565        2.06752        0.21274
H         -5.20773        0.03300       -0.09421
H         -4.29423       -2.13196       -0.10189
H         -1.93456       -2.70358       -0.01456
C          1.23181        1.73146       -0.03028
N          1.10246        2.83265       -0.05001
H          0.14675        3.19138       -0.12224
H          1.68183        3.67657       -0.03003
N          2.54027        1.37436       -0.02874
H          4.56118        0.80072        0.01775
H          4.55062       -0.80898       -0.03441
