32
Coordinates from ORCA-job ./opt_b97-3c_parallel
N         -5.60917       -0.05563       -0.00331
C         -4.46889        0.01308        0.01316
C         -3.03235        0.06354        0.01643
C         -2.35952       -1.22500        0.06038
C         -0.94514       -1.50727        0.06774
C         -0.55455       -2.88103        0.11144
N         -0.28515       -3.99150        0.14682
C         -0.01952       -0.49639        0.03737
C         -0.15208        0.86263       -0.00344
C         -1.14117        1.79833       -0.03254
C         -2.52707        1.37129       -0.02548
N         -3.03082        2.36142       -0.06301
H         -4.03934        2.22157       -0.08151
H         -2.86187        3.30272       -0.41219
H         -0.84889        2.85058       -0.06631
C          1.26858        0.99055       -0.01489
C          1.36439       -0.41288        0.02389
C          2.48769       -1.31084        0.00755
N          2.51994       -2.41237        0.01435
H          1.66184       -2.96010        0.02289
H          3.28318       -3.07392       -0.11175
C          3.85597       -0.82243       -0.08579
C          4.26960        0.56528       -0.11854
C          3.55274        1.72234        0.01102
C          2.22945        2.03568       -0.04794
N          1.88000        3.08222       -0.07446
H          2.56436        3.77655        0.21824
H          1.04649        3.23166        0.49043
H          4.20503        2.58069        0.17306
H          5.34571        0.67479       -0.20975
H          4.66978       -1.54447       -0.14734
H         -3.01114       -2.09482        0.08823
