31
Coordinates from ORCA-job ./opt_b97-3c_parallel
N         -5.63209       -2.21799        0.00117
C         -4.72955       -1.51666       -0.00000
C         -3.57333       -0.67373       -0.00183
C         -2.26963       -1.28570       -0.00035
C         -1.12958       -0.44472       -0.00235
C         -0.89325        0.87982       -0.00226
C         -1.74707        2.01892       -0.00113
N         -1.29586        3.02702        0.00190
H         -2.07415        3.68574        0.02258
H         -0.45095        3.59336        0.03234
C         -3.12112        1.83993       -0.00253
C         -3.89635        0.68462       -0.00317
H         -4.96224        0.90510       -0.00405
H         -3.71329        2.75337       -0.00297
C          0.54742        0.69234        0.00075
N          1.48689        1.58103        0.00342
C          2.57737        0.86728        0.01738
N          3.01007        1.89666        0.01467
H          4.00806        1.68584       -0.04874
H          2.95417        2.91562        0.03017
C          3.21326       -0.37518        0.02902
C          4.64899       -0.47378        0.04662
N          5.60260        0.14209       -0.09096
C          2.48741       -1.65058        0.02345
N          2.88708       -2.68384        0.02858
H          3.89866       -2.81144        0.02017
H          2.48854       -3.62260        0.00260
C          1.10010       -1.80697        0.01155
C          0.26746       -0.64934        0.00201
H          0.58737       -2.77092        0.00985
H         -2.16029       -2.36620        0.00196
