33
Coordinates from ORCA-job ./opt_b97-3c_parallel
N         -1.59729       -3.74616       -0.03081
C         -1.63693       -2.60510       -0.00224
C         -1.75698       -1.17716        0.02722
C         -0.64185       -0.33752        0.04245
C         -0.51106        1.03578        0.02193
N         -1.35259        2.13355       -0.04801
C         -2.69305        1.80837       -0.02560
N         -3.02484        2.86317       -0.10425
H         -2.90374        3.87489       -0.03473
H         -4.03045        2.74076       -0.24041
C         -3.48837        0.70970        0.10558
C         -3.10318       -0.61103        0.03300
N         -4.03518       -1.21245        0.00288
H         -3.86261       -2.21838       -0.01609
H         -5.03875       -1.11380        0.15767
H         -4.53876        0.93876        0.32851
C          0.90512        0.92274        0.03146
C          0.75558       -0.49720        0.05344
C          1.67150       -1.53034        0.06431
N          1.30358       -2.81624        0.09778
H          1.98313       -3.56698       -0.03278
H          0.42441       -3.13461       -0.30937
C          2.98424       -1.26056        0.06337
C          3.48978        0.01693        0.04836
N          4.59277        0.16118        0.06212
H          5.02088       -0.75971        0.18284
H          5.39548        0.78843       -0.01846
N          3.29423        1.39568        0.02742
C          1.99459        1.77441        0.01673
N          2.16306        2.87190        0.00126
H          1.43449        3.58596       -0.03888
H          3.02966        3.41350        0.04471
H          3.67876       -2.10471        0.07827
