26
Coordinates from ORCA-job ./opt_b97-3c_parallel
N         -4.12524       -0.15723        0.03647
C         -3.03979       -0.37451        0.00568
N         -2.51002        0.81420       -0.02665
C         -1.36591        1.42791       -0.05929
N         -1.37289        2.53299       -0.08198
H         -0.40015        2.82380       -0.18641
H         -1.91576        3.39726       -0.10281
C         -0.33152        0.51807       -0.05681
C         -0.25711       -0.90431       -0.03910
C         -1.16108       -1.94538       -0.01355
C         -2.58161       -1.67955        0.01110
H         -3.26203       -2.52811        0.03720
H         -0.81605       -2.97552       -0.00623
C          1.17049       -0.83475       -0.05317
C          1.09822        0.60453       -0.06861
C          2.02981        1.60140       -0.07631
C          3.30187        1.11064       -0.01942
N          4.14334        0.01598        0.02787
C          3.45213       -1.18117        0.00785
C          2.20180       -1.72459       -0.04081
H          2.04328       -2.80040       -0.06006
H          4.35502       -1.80951        0.05405
H          4.23385        1.69518        0.02628
H          1.80776        2.58323        0.33315
H         -4.86410        0.54673        0.06442
H         -4.61546       -1.05073        0.09836
