26
Coordinates from ORCA-job ./opt_b97-3c_parallel
N          1.61007        3.35083        0.00616
C          1.52116        2.21127       -0.00573
C          1.44494        0.78160       -0.00503
C          0.24639        0.09511       -0.00772
C         -0.03240       -1.25213       -0.00732
C          0.79235       -2.33954       -0.00143
C          2.13916       -2.08986        0.00044
N          2.77167       -1.16759       -0.00037
C          2.62637       -0.05983       -0.00183
N          3.69991        0.21254        0.00023
H          3.67017        1.23002        0.00215
H          4.68083       -0.05691        0.00181
H          2.67305       -3.05194       -0.00081
H          0.39844       -3.35296       -0.00129
C         -1.42326       -0.93690       -0.00730
C         -1.08953        0.42929       -0.00918
C         -1.80725        1.56961       -0.00444
C         -3.17087        1.56336       -0.00468
C         -4.10244        0.45031       -0.00338
C         -3.86587       -0.92385       -0.00204
C         -2.60124       -1.62400       -0.00299
H         -2.60235       -2.70919       -0.00097
H         -4.74168       -1.56477       -0.00013
H         -5.14107        0.76626       -0.00292
H         -3.66131        2.53173       -0.00508
H         -1.29052        2.52556        0.00076
