30
Coordinates from ORCA-job ./opt_b97-3c_parallel
N         -4.65903       -2.04549       -0.42036
C         -4.08744       -1.20733        0.10610
C         -2.86005       -0.46211        0.05782
C         -1.62564       -1.11942        0.01727
N         -1.30159       -2.17927        0.00296
H         -0.86531       -2.97160       -0.46475
H         -2.29141       -2.42044        0.06292
C         -0.43870       -0.29862       -0.01998
C         -0.23186        1.05182       -0.04091
C         -1.11207        2.18283       -0.01887
N         -2.17084        1.82049        0.02597
C         -2.92711        0.99403        0.06070
N         -3.79909        1.67704        0.10235
H         -4.17290        2.61283        0.25005
H         -4.59949        1.04733        0.08522
H         -1.00931        3.27844       -0.01872
C          1.18741        0.86089       -0.05682
N          2.20027        1.72527       -0.07231
C          3.34088        0.94875       -0.04454
N          4.16241        1.68847       -0.08361
H          3.92471        2.68029       -0.14026
H          5.17938        1.65634       -0.16346
N          3.99043       -0.27908        0.00573
C          3.27867       -1.48882        0.05349
N          3.99808       -2.32870        0.11441
H          5.00695       -2.49295        0.11509
H          3.58644       -3.24891        0.28477
C          1.83332       -1.64835        0.02927
C          0.98432       -0.49451       -0.02765
H          1.39157       -2.64029        0.07045
