22
Coordinates from ORCA-job ./opt_b97-3c_parallel
N         -1.49882       -3.47583        0.01565
C         -1.62097       -2.34028        0.04585
C         -1.76721       -0.91858        0.04503
C         -0.63882       -0.12398        0.05135
C         -0.36606        1.29218        0.03788
N         -1.10514        2.40648        0.01663
C         -2.43488        2.05087        0.01554
C         -3.33735        1.03179        0.02471
C         -3.07626       -0.31016        0.02966
H         -3.91412       -1.00100        0.01997
H         -4.38623        1.31782        0.01662
H         -2.84764        3.07096        0.00365
C          1.03416        1.02605        0.03424
C          0.77656       -0.36626        0.05039
C          1.65403       -1.50325        0.04856
N          3.04674       -1.45545        0.01946
C          3.51095       -0.19201        0.00051
N          3.37691        1.10137       -0.00295
C          2.26053        1.75893        0.00886
H          2.16926        2.85516       -0.00282
H          4.59676       -0.36447       -0.04591
H          1.36523       -2.56462        0.06257
