31
Coordinates from ORCA-job ./opt_b97-3c_parallel
N         -2.63175       -3.93479        0.04520
C         -2.25732       -2.85471        0.02887
C         -1.82311       -1.47795        0.02197
C         -0.43689       -1.51202        0.00509
C          0.30796       -0.37265        0.00368
C          0.03714        0.96062        0.01293
C         -1.12562        1.69213        0.02397
N         -0.78015        2.74893        0.02145
H         -1.61224        3.33054       -0.06157
H          0.01323        3.34314       -0.20903
C         -2.37712        1.07284        0.03340
C         -3.42319        2.07564        0.04579
N         -4.29910        2.79463       -0.10684
C         -2.70705       -0.29774        0.03559
N         -3.77602       -0.60773        0.04910
H         -4.18995       -1.53818        0.06672
H         -4.54714        0.05782        0.05368
C          1.45289        1.20672        0.01366
C          1.72478       -0.11757        0.00201
C          2.86064       -0.88696       -0.00625
C          2.86357       -2.31742       -0.02485
N          2.81364       -3.45237       -0.15105
C          4.15016       -0.37061       -0.00852
C          4.48497        1.04377        0.01370
C          3.67001        2.14810        0.05940
C          2.32033        2.32734        0.03739
H          1.90223        3.32813        0.05610
H          4.22135        3.08262        0.13481
H          5.55514        1.22687        0.00517
H          5.00834       -1.03818       -0.02842
H          0.09483       -2.46080       -0.00265
