30
Coordinates from ORCA-job ./opt_b97-3c_parallel
N         -0.13191       -3.46359       -0.11178
C         -0.83215       -2.56442       -0.21012
C         -1.29879       -1.21838       -0.04952
C         -0.33401       -0.24184        0.09345
C         -0.34705        1.19037        0.08857
C          1.08169        1.21314        0.10524
C          1.10048       -0.19397        0.11446
C          2.15685       -1.14662        0.05800
N          2.63162       -2.14221        0.01749
H          1.72914       -2.61078       -0.07386
H          3.31887       -2.88882        0.11402
N          3.48362       -0.73609        0.03443
C          3.99221        0.57114        0.03400
C          3.42987        1.84273        0.02627
C          2.03335        2.18718        0.04565
H          1.74780        3.23468        0.02123
H          4.11518        2.68569       -0.00114
H          5.09186        0.62379        0.01228
C         -1.31307        2.15459       -0.05823
C         -2.68086        1.70832       -0.06101
N         -3.37663        2.55243       -0.20825
H         -3.20655        3.55662       -0.23018
H         -4.38446        2.43413       -0.11512
C         -3.17663        0.46806        0.24147
C         -2.67479       -0.77366       -0.06026
N         -3.49602       -1.49530       -0.23077
H         -3.40548       -2.49837       -0.07702
H         -4.49175       -1.30539       -0.33237
H         -4.03250        0.48048        0.92253
H         -1.04932        3.20369       -0.18057
