30
Coordinates from ORCA-job ./opt_b97-3c_parallel
N         -0.93831       -3.60864        0.00816
C         -1.28691       -2.52258        0.00732
C         -1.64360       -1.14112        0.00415
C         -0.58141       -0.16425       -0.00097
C         -0.52149        1.25832       -0.00163
N         -1.47529        2.24945       -0.00455
C         -2.73421        1.68517       -0.00240
N         -3.36085        2.59758       -0.01001
H         -4.37819        2.69804       -0.02480
H         -3.01598        3.56034       -0.01694
N         -3.56214        0.57007        0.00377
C         -3.05115       -0.73773        0.00948
N         -4.02548       -1.27394        0.01647
H         -5.03917       -1.12708        0.03592
H         -3.93382       -2.29412        0.01583
C          0.91440        1.20456       -0.00308
C          0.86268       -0.20887       -0.00394
C          1.88376       -1.21621       -0.00892
N          2.04201       -2.31480       -0.01308
H          1.28769       -3.00688       -0.00796
H          2.88690       -2.89216       -0.02989
N          3.23551       -0.85806       -0.01081
C          3.82520        0.42165       -0.00761
N          4.91358        0.20943       -0.00977
H          5.61976       -0.53041       -0.00761
H          5.46652        1.07023       -0.01764
C          3.30785        1.71872       -0.00330
C          1.92292        2.12477       -0.00249
H          1.69533        3.18767        0.00020
H          4.01483        2.54698       -0.00065
