30
Coordinates from ORCA-job ./opt_b97-3c_parallel
N         -5.29609       -1.72065        0.01332
C         -4.22438       -1.32465        0.00445
C         -2.89023       -0.78945       -0.00331
C         -1.80886       -1.73679       -0.00428
N         -0.72707       -1.96992       -0.00788
C         -0.01494       -1.12713       -0.00934
C         -0.12177        0.32234       -0.01338
C         -1.23716        1.14656       -0.01579
C         -0.94177        2.55037       -0.02398
N         -0.99972        3.69192       -0.00081
C         -2.59051        0.57946       -0.00964
N         -3.42009        1.31805       -0.00847
H         -3.41134        2.33579        0.05103
H         -4.39989        1.03660        0.00653
C          1.29757        0.49376       -0.01076
C          1.41271       -0.91210       -0.00774
C          2.52064       -1.83537       -0.00304
N          2.51539       -2.93855       -0.00064
H          3.14367       -3.74047       -0.00055
H          1.56617       -3.31502       -0.00523
N          3.83552       -1.37851       -0.00168
C          4.02941       -0.00877       -0.00292
C          3.60900        1.28803       -0.00440
C          2.26473        1.56042       -0.00909
N          2.12017        2.65304       -0.01069
H          1.20511        3.10216       -0.00430
H          2.80077        3.41172       -0.00961
H          4.36368        2.07959        0.00418
H          5.13008        0.00437       -0.00020
H         -2.14399       -2.78617        0.00151
