21
Coordinates from ORCA-job ./opt_b97-3c_parallel
C         -3.53477       -0.05476        0.00259
C         -2.92070        1.16620        0.00247
N         -1.63502        1.67894        0.00209
C         -0.67182        0.68196        0.00197
C         -0.75370       -0.76811        0.00197
N         -1.67770       -1.38501        0.00195
C         -2.77059       -1.19007        0.00223
H         -3.46573       -2.04313        0.00295
C          0.68822       -0.68453        0.00192
C          0.74281        0.73078        0.00184
C          1.73297        1.67012        0.00151
C          3.01034        1.28577        0.00095
C          3.33304       -0.04417        0.00062
N          3.02344       -1.39552        0.00073
C          1.69498       -1.62397        0.00148
H          1.44009       -2.69416        0.00155
H          4.42757       -0.15377        0.00069
H          3.80067        2.03280        0.00063
H          1.47681        2.72668        0.00164
H         -3.61277        2.02144        0.00285
H         -4.62005       -0.12186        0.00344
