31
Coordinates from ORCA-job ./opt_b97-3c_parallel
N          3.19367        3.01324        0.03081
C          3.07673        1.87709        0.01249
C          2.83545        0.47075       -0.00630
C          1.50457       -0.03083        0.00389
C          0.99244       -1.34562        0.00027
C          1.53469       -2.59760       -0.02550
C          2.96262       -2.77317       -0.05615
C          3.93921       -1.78455       -0.05581
C          3.91068       -0.39604       -0.03168
H          4.89277        0.07108       -0.03759
H          4.94775       -2.18818       -0.07987
H          3.30450       -3.80406       -0.08222
H          0.90306       -3.48025       -0.03331
C         -0.32403       -0.76934        0.01446
C          0.22701        0.47708        0.01263
C         -0.32622        1.79586        0.01245
N         -0.01643        2.85822        0.01399
H          1.00310        2.78943        0.06362
H         -0.19734        3.86326        0.01925
N         -1.67221        1.92200       -0.01789
C         -2.67447        1.00687       -0.02938
N         -3.32347        1.91025       -0.06461
H         -4.16875        1.33559       -0.09849
H         -3.66913        2.86712       -0.15297
C         -2.75740       -0.38583        0.00068
C         -4.11906       -0.83927       -0.00463
N         -5.21855       -1.14634       -0.00967
C         -1.64755       -1.31588        0.02608
N         -1.69566       -2.41853        0.04962
H         -0.95122       -3.07991        0.26841
H         -2.56455       -2.95215        0.07923
