26
Coordinates from ORCA-job ./opt_b97-3c_parallel
N         -3.83461       -1.55491       -0.01396
C         -2.86435       -0.62518        0.03415
C         -1.63617       -1.21086        0.01652
C         -0.51435       -0.34268        0.00904
C         -0.44013        1.06906        0.01633
N         -1.33341        2.12043        0.04538
C         -2.71019        1.89839        0.08648
C         -3.40962        0.63063        0.09002
H         -4.49025        0.74173        0.13782
H         -3.27474        2.84174        0.12537
C          0.98032        0.95576       -0.01491
C          0.91503       -0.47980       -0.01851
C          1.85522       -1.47614       -0.03895
N          1.41328       -2.74286       -0.00490
H          0.50805       -2.95508        0.40922
H          2.05300       -3.49634        0.23935
C          3.15154       -1.15529       -0.07995
C          3.55129        0.15384       -0.09501
N          3.34452        1.52413       -0.08462
C          2.03557        1.83871       -0.04023
H          1.77327        2.90698       -0.03096
H          4.64693        0.24674       -0.13625
H          3.90614       -1.93858       -0.09222
H         -1.47325       -2.28502       -0.00235
H         -3.63801       -2.49055       -0.36321
H         -4.77408       -1.29834       -0.31342
