24
Coordinates from ORCA-job ./opt_b97-3c_parallel
N         -3.88338       -1.19295        0.00055
C         -2.99829       -0.53523        0.00137
N         -1.87564       -1.34881        0.00107
C         -0.70719       -0.60650        0.00236
C         -0.42664        0.74336        0.00304
N         -1.06319        1.92443        0.00324
C         -2.43038        1.70120        0.00265
N         -3.29460        0.72999        0.00218
H         -2.81212        2.73436        0.00266
C          0.97227        0.42088        0.00287
C          0.68622       -0.91504        0.00211
C          1.44342       -2.13632        0.00091
N          2.83583       -2.08428        0.00088
C          3.43357       -0.83258        0.00164
C          3.41872        0.53403        0.00244
C          2.20193        1.15646        0.00256
N          2.16095        2.25856        0.00336
H          1.33426        2.85301        0.00278
H          2.96809        2.88073        0.00370
H          4.35275        1.09528        0.00309
H          4.46555       -1.21535        0.00158
H          1.12288       -3.18894       -0.00002
H         -4.86050       -0.90263        0.00105
H         -3.88868       -2.21227        0.00068
