28
Coordinates from ORCA-job ./opt_b97-3c_parallel
N         -4.81837       -1.91629        0.00075
C         -3.95867       -1.16345        0.00016
C         -2.85012       -0.24562       -0.00092
C         -1.55240       -0.87992       -0.00124
C         -0.37753       -0.08154       -0.00246
C         -0.12175        1.24527       -0.00298
C         -0.92063        2.41440       -0.00261
C         -2.29505        2.29462       -0.00221
C         -3.09941        1.14107       -0.00160
N         -4.13167        1.55661       -0.00156
H         -4.62464        2.44832       -0.00343
H         -4.85479        0.83805       -0.00180
H         -2.77004        3.28154       -0.00225
H         -0.44659        3.39081       -0.00266
C          1.28928        0.99870       -0.00336
N          2.33401        1.82575       -0.00362
C          3.44219        1.00625       -0.00338
N          4.36285        1.61473       -0.00312
H          4.31982        2.63371       -0.00460
H          5.35456        1.37720       -0.00359
N          4.04625       -0.23816       -0.00274
C          3.28020       -1.41081       -0.00187
C          1.83339       -1.53781       -0.00194
C          1.23651       -2.83376       -0.00084
N          0.78857       -3.88415        0.00149
C          1.03067       -0.34627       -0.00279
H          3.88101       -2.33384       -0.00095
H         -1.47655       -1.96291       -0.00061
