30
Coordinates from ORCA-job ./opt_b97-3c_parallel
N         -5.75275        0.14529        0.06768
C         -4.61611        0.06143        0.04133
C         -3.18430       -0.08724        0.01047
C         -2.63368        1.19790       -0.01727
C         -1.22942        1.54928       -0.01761
C         -0.99352        2.96099       -0.01277
N         -0.32176        3.87726       -0.13382
C         -0.23342        0.60878       -0.03235
C         -0.23745       -0.81259       -0.05716
C         -1.21282       -1.74443       -0.03611
C         -2.53961       -1.39655        0.02251
N         -3.10965       -2.34517        0.06963
H         -3.05836       -3.33303        0.31350
H         -4.10047       -2.10326        0.09487
H         -0.89523       -2.78921        0.03130
C          1.19560       -0.78233       -0.05618
C          1.19791        0.63615       -0.02308
C          2.18986        1.58926        0.01979
N          3.51675        1.35702        0.05989
C          3.82998        0.00535        0.03189
N          4.93397        0.03815        0.09474
H          5.43337        0.92656        0.16647
H          5.65579       -0.67582        0.20048
N          3.56996       -1.36173       -0.02224
C          2.23658       -1.77967       -0.07837
N          2.18468       -2.88397       -0.13275
H          1.26460       -3.27993       -0.33508
H          2.83264       -3.66848       -0.22590
H          2.06684        2.68293        0.04830
H         -3.31298        2.05119       -0.02137
