30
Coordinates from ORCA-job ./opt_b97-3c_parallel
N          2.46259        3.39104        0.08500
C          2.41805        2.25024        0.04258
C          2.31938        0.82482        0.00640
C          1.06988        0.13854        0.00969
C          0.76950       -1.24477       -0.00350
C         -0.61451       -0.88880        0.01661
C         -0.27561        0.43493        0.02262
C         -1.09931        1.61196        0.02724
N         -0.73606        2.65342        0.02395
H         -1.13595        3.59093        0.05487
H          0.27455        2.79035        0.03644
C         -2.46888        1.56682        0.02240
C         -3.10325        0.35306       -0.00508
N         -4.20353        0.24447       -0.06227
H         -4.64792        1.13873       -0.26648
H         -4.95615       -0.44382       -0.06505
N         -3.01243       -0.99119       -0.00561
C         -1.83220       -1.65289        0.01768
N         -2.10816       -2.71845        0.02133
H         -1.18118       -3.09356        0.22041
H         -2.77265       -3.45234        0.26166
H         -3.06379        2.48366        0.07368
C          1.48705       -2.40302       -0.04140
C          2.92481       -2.36868       -0.07480
C          3.74339       -1.24636       -0.06312
C          3.51026        0.12261       -0.02471
H          4.41437        0.72601       -0.02284
H          4.80053       -1.49470       -0.08978
H          3.41477       -3.33724       -0.11144
H          0.98684       -3.36640       -0.05653
