32
Coordinates from ORCA-job ./opt_b97-3c_parallel
N          3.90003        2.23395        0.09459
C          3.04804        1.19913       -0.00145
C          1.78647        1.70740       -0.04724
C          0.73071        0.76312       -0.04254
C          0.74285       -0.65809       -0.01659
N          1.72051       -1.64298       -0.02320
C          3.08691       -1.33238       -0.05806
N          3.53884       -2.34055       -0.09183
H          3.38717       -3.34941       -0.09707
H          4.54632       -2.22020       -0.20482
C          3.69014       -0.00994       -0.05561
H          4.77778       -0.02129       -0.09425
C         -0.69737       -0.64576       -0.00627
C         -0.69763        0.77880       -0.03807
C         -1.74671        1.75495       -0.05956
N         -1.45341        2.81728       -0.10195
H         -2.15289        3.56000       -0.13150
H         -0.56073        3.27978       -0.27328
C         -3.05905        1.36517       -0.05387
C         -3.42226        0.04533        0.03105
N         -4.47657       -0.28403        0.11956
H         -5.11292        0.49612        0.28845
H         -5.07727       -1.10960        0.09130
N         -3.02850       -1.24464        0.07030
C         -1.73390       -1.64345        0.03503
N         -1.65172       -2.74146        0.06869
H         -2.36868       -3.46346        0.13205
H         -0.76040       -3.23350        0.03617
H         -3.83303        2.12379       -0.18737
H          1.54752        2.76936       -0.06100
H          3.58633        3.14914        0.41776
H          4.86242        2.10444        0.40667
