26
Coordinates from ORCA-job ./opt_b97-3c_parallel
N         -1.93105       -3.51398        0.00176
C         -1.96976       -2.37196        0.00295
C         -1.97837       -0.94373        0.00315
C         -0.85930       -0.13749        0.00478
C         -0.73343        1.23409        0.00425
C          0.67941        1.06142        0.00392
C          0.50594       -0.33058        0.00531
C          1.33887       -1.38927        0.00145
C          2.69608       -1.26269        0.00080
C          3.52432       -0.06535       -0.00058
N          4.61681       -0.22411       -0.00158
H          5.10127       -1.11951       -0.00148
H          5.33408        0.49831       -0.00190
C          3.14761        1.34726       -0.00148
C          1.81694        1.90986       -0.00025
H          1.68610        2.98692       -0.00161
H          3.95112        2.08048       -0.00330
H          3.25272       -2.19736        0.00091
H          0.91525       -2.38985        0.00025
C         -1.67309        2.22460       -0.00059
C         -2.98430        1.82371       -0.00012
N         -3.53949        0.85947        0.00082
C         -3.21895       -0.20678        0.00142
H         -4.13141       -0.82252        0.00005
H         -3.60625        2.73177       -0.00009
H         -1.39413        3.27548       -0.00018
