29
Coordinates from ORCA-job ./opt_b97-3c_parallel
N         -3.77042       -3.29457        0.02622
C         -3.01364       -2.43810        0.01953
C         -2.09243       -1.33423        0.01215
C         -0.73701       -1.64536        0.00361
N         -0.26373       -2.64870       -0.00065
H         -0.99036       -3.36206       -0.02509
H          0.62176       -3.13219       -0.13342
C          0.23990       -0.68397        0.00033
C          0.26817        0.67780       -0.00083
C         -0.74754        1.68399        0.00050
N         -0.24317        2.67147       -0.00558
H         -0.98521        3.36915       -0.02427
H          0.63159        3.17513       -0.13456
C         -2.09252        1.31926        0.00961
C         -3.00542        2.42809        0.01508
N         -3.75568        3.29071        0.02435
C         -2.69198       -0.00838        0.01686
H         -3.77906       -0.00778        0.02558
C          1.70456        0.67248        0.00044
C          1.68433       -0.67994        0.00144
C          2.70288       -1.67242        0.00978
C          4.00595       -1.23147        0.01458
N          4.58032       -0.01091        0.01618
C          4.10312        1.25506        0.01377
C          2.72182        1.67439        0.00740
H          2.47195        2.72947        0.00815
H          4.89069        2.02333        0.01907
H          4.83871       -1.95065        0.02125
H          2.44074       -2.72424        0.01306
