29
Coordinates from ORCA-job ./opt_b97-3c_parallel
N          5.77928        0.73004        0.05595
C          4.64550        0.59395        0.03032
C          3.22387        0.37974        0.00028
C          2.61271        1.63793       -0.02536
C          1.19962        1.93663       -0.02904
C          0.25552        0.94932       -0.03568
C          0.31608       -0.47044       -0.05310
C          1.32807       -1.36285       -0.04429
C          2.63884       -0.95796        0.00899
N          3.24781       -1.88229        0.05062
H          4.21809       -1.57076        0.01592
H          3.27897       -2.86099        0.32993
H          1.05593       -2.42158       -0.02101
C         -1.11777       -0.49175       -0.04773
C         -1.17128        0.92625       -0.02559
C         -2.19177        1.84747        0.00813
N         -3.51026        1.57109        0.03858
C         -3.77594        0.20891        0.01828
N         -4.88040        0.25493        0.06360
H         -5.59317       -0.47063        0.14805
H         -5.39808        1.13491        0.10334
N         -3.47035       -1.14949       -0.01983
C         -2.12331       -1.52401       -0.05898
N         -2.01725       -2.62498       -0.09525
H         -1.05323       -2.92973       -0.24211
H         -2.57197       -3.48258       -0.12603
H         -1.96306        2.92504        0.02608
H          0.89867        2.98036       -0.02941
H          3.24085        2.52805       -0.02868
