28
Coordinates from ORCA-job ./opt_b97-3c_parallel
N         -5.76907       -1.36221        0.00273
C         -4.81153       -0.73797        0.00233
C         -3.58882        0.00850        0.00152
C         -2.33867       -0.70784        0.00222
C         -1.12621        0.03113        0.00088
C         -0.80355        1.34378       -0.00111
C         -1.55311        2.54837       -0.00255
C         -2.93297        2.47695       -0.00189
C         -3.80050        1.38872       -0.00017
H         -4.84618        1.69404       -0.00032
H         -3.43181        3.44218       -0.00293
H         -1.04454        3.50733       -0.00412
C          0.59000        1.00234       -0.00163
N          1.72185        1.70240       -0.00366
C          2.90537        1.05170       -0.00415
N          3.38953        2.05155       -0.00585
H          3.41063        3.07109       -0.00659
H          4.37088        1.76460       -0.00627
C          3.24278       -0.30950       -0.00281
C          4.66003       -0.51198       -0.00383
N          5.79559       -0.63037       -0.00467
C          2.37207       -1.48008       -0.00026
C          0.98777       -1.46794        0.00117
C          0.39495       -2.76610        0.00358
N         -0.18089       -3.75283        0.00057
C          0.26323       -0.31395        0.00034
H          2.89338       -2.43561        0.00058
H         -2.32702       -1.79346        0.00338
