25
Coordinates from ORCA-job ./opt_b97-3c_parallel
N         -2.50900       -3.20191       -0.14645
C         -2.32711       -2.07753       -0.04874
C         -2.08224       -0.66353        0.08228
C         -0.75841       -0.20501        0.23183
C         -0.41480        1.21059        0.48585
N         -0.87931        2.13901       -0.36866
C         -1.91944        2.34290       -0.05670
C         -3.14340        1.58598        0.01078
C         -3.19493        0.18971        0.04880
H         -4.18271       -0.26480        0.00589
H         -4.06298        2.16447       -0.02818
H         -1.79626        3.41936       -0.10002
C          0.81654        0.44165        0.19222
C          0.46436       -0.97200        0.11932
C          1.25294       -2.13373        0.00708
C          2.64388       -2.03142       -0.05913
C          3.32036       -0.75486       -0.02020
N          2.91011        0.28025        0.02985
C          1.89382        0.73978        0.07548
N          2.41255        1.99750       -0.07902
H          1.79866        2.80403       -0.05122
H          3.41509        2.14868       -0.08583
H          4.38521       -0.55496       -0.01469
H          3.25235       -2.92825       -0.14501
H          0.78527       -3.11452       -0.02831
