30
Coordinates from ORCA-job ./opt_b97-3c_parallel
N          1.08937        3.94061       -0.01598
C          1.47450        2.86566       -0.00860
C          1.85361        1.49063        0.00039
C          0.84873        0.48823        0.00666
C          0.90174       -0.92190        0.00743
N          1.92098       -1.84626        0.01580
C          3.25536       -1.42666        0.01993
N          3.80705       -2.38714        0.03301
H          4.79893       -2.13667        0.06635
H          3.81669       -3.40950        0.03646
C          3.81678       -0.14878        0.00699
C          3.19899        1.16938       -0.00385
H          3.90699        1.99630       -0.01373
H          4.90487       -0.10177        0.00574
C         -0.53967       -0.95825        0.00382
C         -0.59279        0.47548        0.00600
C         -1.62308        1.40613        0.00687
N         -1.76876        2.51001        0.01187
H         -0.94135        3.11999       -0.00772
H         -2.53355        3.19275        0.04417
N         -2.94456        1.10961        0.00393
C         -3.23406       -0.25688       -0.00180
N         -4.34251       -0.31331       -0.00507
H         -4.98493        0.48413       -0.00217
H         -4.97321       -1.11953       -0.01340
N         -2.90283       -1.61430       -0.00591
C         -1.55189       -1.99455       -0.00289
N         -1.54361       -3.10643       -0.00900
H         -2.33023       -3.76247       -0.06146
H         -0.73423       -3.73283        0.02898
