29
Coordinates from ORCA-job ./opt_b97-3c_parallel
N          4.77986        2.12086        0.00888
C          3.88154        1.41477        0.01402
C          2.77812        0.49977        0.01207
C          3.10702       -0.91714        0.02657
N          2.33496       -2.03489        0.02964
C          1.00239       -2.22568        0.01118
N          0.95252       -3.32917        0.03133
H          0.11946       -3.88346        0.22618
H          1.71887       -4.00396        0.00363
C          0.15393       -1.08162       -0.01581
C          0.34811        0.26115       -0.01180
C         -1.08236        0.47613       -0.01634
C         -1.25923       -0.86761       -0.02782
C         -2.41681       -1.68711       -0.04838
C         -3.64384       -1.05454       -0.04793
N         -4.10382        0.22206       -0.01203
C         -3.34306        1.40237        0.02213
N         -4.17832        2.12475        0.05812
H         -5.19479        2.07137       -0.02370
H         -3.97983        3.09375        0.30962
C         -1.90495        1.57057        0.00659
H         -1.51180        2.58243        0.02986
H         -4.50845       -1.73617       -0.07476
H         -2.31252       -2.76775       -0.07233
C          1.51551        1.09093        0.00007
N          1.16159        2.14083       -0.01050
H          0.53185        2.86336       -0.35835
H          2.04906        2.61876        0.15240
H          4.16626       -1.21859        0.04121
