33
Coordinates from ORCA-job ./opt_b97-3c_parallel
N          1.31052        3.67758        0.51053
C          1.36775        2.54940        0.33237
C          1.49094        1.14157        0.10159
C          0.38912        0.31536       -0.04588
C          0.25463       -1.05919       -0.06750
C          1.05478       -2.16998        0.03562
C          2.46693       -1.91904       -0.00584
N          3.09245       -2.82229        0.09657
H          4.09570       -2.87349       -0.06689
H          2.68365       -3.65733       -0.31926
C          3.07598       -0.74615       -0.36136
C          2.80119        0.52208        0.08335
N          3.79784        0.97208        0.26082
H          4.74040        0.81800        0.61273
H          3.64843        1.97962        0.24591
H          3.70058       -0.81650       -1.25604
H          0.64677       -3.17123        0.14687
C         -1.16131       -0.90842       -0.09334
C         -0.98617        0.48973       -0.07703
C         -1.93399        1.57217       -0.09069
N         -1.70304        2.65011       -0.10697
H         -0.77359        3.05290       -0.00420
H         -2.34670        3.43161       -0.21014
C         -3.31104        1.37813       -0.17634
C         -3.98753        0.09798       -0.15722
C         -3.53809       -1.17632        0.05392
C         -2.30746       -1.74745       -0.05942
N         -2.17002       -2.84220       -0.05756
H         -2.93755       -3.40226        0.30735
H         -1.36508       -3.01436        0.54129
H         -4.32781       -1.85232        0.38148
H         -5.06398        0.18590       -0.26451
H         -3.97728        2.23581       -0.27028
