32
Coordinates from ORCA-job ./opt_b97-3c_parallel
N          4.74750        3.35718       -0.00196
C          3.94658        2.54279       -0.00200
C          2.91040        1.55634       -0.00093
C          1.54076        2.00044       -0.00109
C          0.50020        1.03657       -0.00202
C          0.42738       -0.31893       -0.00099
C          1.41189       -1.35532        0.00072
N          0.93694       -2.35424        0.00135
H          0.17980       -3.03480       -0.00171
H          1.79233       -2.90966       -0.00020
C          2.75234       -0.98400       -0.00106
C          3.74179       -2.02886        0.00051
N          4.49900       -2.88460       -0.00038
C          3.40558        0.25120       -0.00055
H          4.49635        0.19853       -0.00120
C         -1.01527       -0.23261       -0.00121
C         -0.92305        1.12302       -0.00224
C         -1.85499        2.19303       -0.00225
C         -3.19349        1.85246       -0.00227
N         -3.94975        2.66148       -0.00469
H         -4.96141        2.79657       -0.00492
H         -3.56344        3.60749       -0.01020
N         -3.83965        0.65802       -0.00108
C         -3.45981       -0.65021        0.00084
N         -4.50859       -1.01614        0.00168
H         -4.25010       -2.00738        0.00455
H         -5.52901       -1.02022       -0.00055
C         -2.09834       -1.16500       -0.00014
C         -2.06175       -2.59300        0.00281
N         -2.48507       -3.65490       -0.00206
H         -1.48037        3.21464       -0.00321
H          1.30575        3.06061       -0.00160
