30
Coordinates from ORCA-job ./opt_b97-3c_parallel
N         -5.48617        0.06615        0.00662
C         -4.34512        0.02773        0.00262
C         -2.91478        0.04075       -0.00064
C         -2.13387       -1.17543       -0.00198
N         -1.04159       -1.36697       -0.00392
C         -0.09494       -0.79097       -0.00165
C         -0.02840        0.66178        0.00062
N         -0.99327        1.66755       -0.00083
C         -2.29548        1.28864       -0.00203
N         -2.55578        2.36757       -0.00331
H         -2.38774        3.37271       -0.06793
H         -3.57325        2.27560        0.03765
C          1.33430        0.66662        0.00343
C          1.35101       -0.68839        0.00170
C          2.37557       -1.70834        0.00753
N          2.35728       -2.81377        0.01088
H          3.14232       -3.46587        0.05105
H          1.52150       -3.39944        0.00187
N          3.72549       -1.35519        0.01033
C          4.04541       -0.00464        0.00921
C          3.71059        1.31877        0.00724
C          2.38302        1.64685        0.01072
N          2.10198        2.71420        0.02369
H          2.94411        3.28193        0.12074
H          1.33122        3.37906       -0.02298
H          4.48896        2.08041       -0.06543
H          5.14626       -0.05710        0.00864
N         -2.41912       -2.24626       -0.00212
H         -2.18939       -3.23838       -0.04805
H         -3.43771       -2.20151        0.02370
