26
Coordinates from ORCA-job ./opt_b97-3c_parallel
N         -4.39815       -2.24370       -0.01517
C         -3.54246       -1.48590        0.00877
C         -2.48380       -0.52150        0.00570
C         -1.19959       -1.05093        0.00347
C         -0.11113       -0.11881        0.00075
C         -0.01469        1.23181        0.00001
C         -1.02062        2.25672        0.00059
N         -2.05786        1.83125        0.00197
C         -2.70431        0.91716        0.00437
N         -3.67473        1.45110        0.00580
H         -4.35399        0.69319       -0.00073
H         -4.20145        2.32162        0.00078
H         -0.60117        3.27383       -0.00046
C          1.43325        1.21688       -0.00138
N          2.22020        2.24409       -0.00217
C          3.33466        1.57242       -0.00147
C          4.13215        0.44251       -0.00082
C          3.62164       -0.84985       -0.00099
C          2.27901       -1.20867       -0.00073
C          1.93274       -2.59448       -0.00030
N          1.49214       -3.64922        0.01460
C          1.30175       -0.16089       -0.00058
H          4.35114       -1.65446       -0.00079
H          5.21031        0.56962       -0.00042
H          4.00989        2.44168       -0.00088
H         -1.00988       -2.11991        0.00421
