28
Coordinates from ORCA-job ./opt_b97-3c_parallel
N         -3.58824       -2.26439        0.03528
C         -3.08086       -1.27442        0.01409
N         -1.77282       -1.75177        0.01359
C         -0.77107       -0.78251        0.00584
C         -0.72956        0.60350        0.00101
N         -1.65626        1.59035       -0.01409
C         -2.97376        1.12764       -0.01677
N         -3.43605        2.13993       -0.05300
H         -4.44123        2.19613       -0.25044
H         -3.18805        3.12275        0.09725
C         -3.69221       -0.04449        0.00336
H         -4.78245        0.00135        0.03060
C          0.66229        0.57178        0.00830
C          0.66035       -0.85212        0.00895
C          1.63623       -1.82604        0.01098
N          2.97176       -1.63470        0.01115
C          3.34937       -0.29817        0.01495
N          4.44768       -0.44760        0.01238
H          4.91800       -1.35615       -0.03760
H          5.22380        0.21845        0.05092
N          3.08462        1.07242        0.02051
C          1.75711        1.53130        0.01912
N          1.96286        2.62525        0.02914
H          2.88709        3.06990        0.06281
H          1.33561        3.43461        0.03158
H          1.80334       -2.91657        0.00994
H         -3.30180       -3.24601       -0.03529
H         -4.60618       -2.33650        0.13903
