28
Coordinates from ORCA-job ./opt_b97-3c_parallel
N         -5.01300       -1.69326       -0.00831
C         -4.03515       -1.10280        0.00939
C         -2.82283       -0.33944        0.00500
C         -1.63680       -1.06071        0.00295
C         -0.44193       -0.38338        0.00032
C         -0.06236        0.92748       -0.00080
C         -0.87852        2.11063       -0.00011
N         -1.97824        1.89153        0.00103
C         -2.78736        1.11607        0.00361
N         -3.64683        1.81392        0.00522
H         -4.02257        2.75954        0.00180
H         -4.44299        1.17936        0.00122
H         -0.42177        3.11143       -0.00039
C          1.28236        0.64226       -0.00143
C          0.94510       -0.73144       -0.00042
C          1.69966       -1.93524        0.00051
C          1.06000       -3.21341        0.00166
N          0.51828       -4.21964        0.00188
C          3.08329       -1.93026        0.00012
C          3.97951       -0.78549       -0.00076
C          3.70410        0.57673       -0.00132
C          2.50076        1.25358       -0.00165
C          2.51828        2.68345       -0.00208
N          2.58653        3.82423        0.00302
H          4.59044        1.20553       -0.00155
H          5.03219       -1.05063       -0.00089
H          3.58618       -2.89437        0.00068
H         -1.64937       -2.14619        0.00411
