30
Coordinates from ORCA-job ./opt_b97-3c_parallel
N          5.26664        1.43313        0.00644
C          4.18910        1.05527       -0.00387
C          2.84061        0.54599       -0.00114
C          2.02838        1.68550       -0.00016
C          0.58624        1.73249       -0.00021
C          0.08250        3.07168        0.00000
N         -0.72036        3.88511       -0.00098
C         -0.18197        0.60280       -0.00079
C          0.10434       -0.78798       -0.00083
C         -1.30896       -1.06734       -0.00046
C         -1.58938        0.32730        0.00041
C         -2.79007        1.12825        0.00022
N         -3.23470        2.13800        0.00048
H         -2.45325        2.79648       -0.00002
H         -4.07515        2.71380       -0.00001
N         -4.04349        0.51685        0.00080
C         -4.08727       -0.87002        0.00006
C         -3.50804       -2.10426        0.00013
C         -2.15137       -2.22976       -0.00072
H         -1.69143       -3.21140       -0.00104
H         -4.12890       -2.99864        0.00228
H         -5.16475       -1.09693        0.00182
C          1.28221       -1.49142       -0.00145
C          0.98040       -2.89804       -0.00250
N          0.98071       -4.04083        0.00280
C          2.53488       -0.88784       -0.00157
N          3.39963       -1.58355       -0.00230
H          3.37025       -2.60210        0.00117
H          4.38446       -1.32081       -0.00181
H          2.50425        2.66855       -0.00015
