27
Coordinates from ORCA-job ./opt_b97-3c_parallel
N         -4.36878       -1.36681       -0.02529
C         -3.35930       -0.91532       -0.01720
N         -3.76108        0.42605       -0.03564
C         -3.02084        1.61573       -0.03730
C         -1.65717        1.83899       -0.01582
C         -0.75386        0.74004        0.00703
C         -0.88831       -0.60896        0.01064
C          0.47045       -0.81163        0.02320
C          0.68090        0.60993        0.02137
C          1.78103        1.45179        0.02979
N          1.97298        2.54355        0.03478
H          1.24195        3.23469        0.21137
H          2.82237        3.10446       -0.07042
N          3.06429        0.90043        0.02947
C          3.16555       -0.48723        0.02690
N          4.23734       -0.76535        0.01611
H          4.62375       -1.71183       -0.01211
H          5.05941       -0.15934        0.00467
N          2.69575       -1.79229        0.02642
C          1.35220       -1.95234        0.02889
H          1.21918       -3.04602        0.02867
C         -2.02412       -1.47315        0.00093
H         -1.88564       -2.55098        0.00956
H         -1.27123        2.85423       -0.02151
H         -3.75257        2.43945       -0.05897
H         -5.29963       -0.94917        0.02688
H         -4.53968       -2.37235       -0.08145
