30
Coordinates from ORCA-job ./opt_b97-3c_parallel
N         -6.22285       -0.41193        0.00944
C         -5.08395       -0.32083       -0.00474
C         -3.65823       -0.16550       -0.01685
C         -3.10154       -1.43965       -0.05183
N         -1.86243       -1.97627       -0.06286
C         -0.83343       -1.06873       -0.06593
C         -0.73711        0.34643       -0.05326
C         -1.62205        1.37066       -0.00815
C         -2.97088        1.11803        0.01488
N         -3.51335        2.08268        0.05781
H         -4.51687        1.91254        0.11019
H         -3.37642        3.06570        0.28611
H         -1.23298        2.38752        0.06781
C          0.64067        0.22395       -0.03563
C          0.58818       -1.12909       -0.04447
C          1.52051       -2.19810       -0.01489
N          2.88682       -1.95141        0.04206
C          3.53589       -0.71063        0.06734
N          4.39590       -1.41072        0.10622
H          5.07987       -0.65141        0.12205
H          4.94146       -2.27030        0.16918
C          3.08281        0.61165        0.03970
C          4.21061        1.50185        0.07382
N          5.31539        1.73652       -0.10042
C          1.73217        1.14517       -0.00797
N          1.45944        2.21513       -0.02975
H          2.23906        2.86656       -0.11217
H          0.62538        2.73447       -0.30101
H          1.00521       -3.17153       -0.02838
H         -3.58829       -2.42727       -0.07213
