33
Coordinates from ORCA-job ./opt_b97-3c_parallel
N         -2.84831       -3.58583       -0.25201
C         -2.73030       -2.45560       -0.12932
C         -2.60766       -1.02831        0.01903
C         -1.33601       -0.44520        0.21812
C         -1.16445        0.99569        0.46579
N         -1.71063        1.85839       -0.41001
C         -2.77677        1.98696       -0.15483
N         -2.90820        3.34233       -0.05604
H         -2.08245        3.93038       -0.03670
H         -3.78978        3.74517        0.24176
C         -3.90760        1.09788       -0.09363
C         -3.80167       -0.29383       -0.05366
H         -4.73346       -0.85071       -0.12913
H         -4.88962        1.55813       -0.17644
C          0.16302        0.37049        0.23039
C         -0.02137       -1.05211        0.17434
C          0.88939       -2.10339        0.14015
N          0.36726       -3.36414        0.16762
H         -0.63137       -3.48676        0.03480
H          0.97438       -4.15161       -0.03131
C          2.26736       -1.93866        0.08217
C          3.03748       -0.76674        0.01647
N          4.38169       -1.05297       -0.05335
H          4.68465       -2.01193       -0.18307
H          5.04456       -0.30352       -0.22388
C          2.63973        0.60041        0.02163
C          3.71844        1.57501       -0.08761
N          4.56749        2.33482       -0.18642
C          1.33493        1.14217        0.14375
N          1.18468        2.50948        0.20193
H          0.25540        2.89184        0.05902
H          1.97641        3.09227       -0.04909
H          2.82829       -2.87318        0.06995
