28
Coordinates from ORCA-job ./opt_b97-3c_parallel
N         -5.28783       -0.17017        0.00051
C         -4.14755       -0.25177       -0.00008
C         -2.74562        0.07308        0.00028
C         -2.09051       -1.23579        0.00051
C         -0.66244       -1.46029        0.00101
C         -0.27174       -2.83530        0.00171
N          0.05098       -3.93166       -0.00129
C          0.24441       -0.43853        0.00097
C          0.13589        0.97462        0.00079
C         -0.91338        1.83925        0.00066
C         -2.21564        1.36701        0.00045
N         -2.86793        2.26348        0.00035
H         -3.87044        2.07866        0.00029
H         -2.75838        3.27556        0.00152
H         -0.67916        2.90507        0.00077
C          1.55818        1.08020        0.00105
C          1.67604       -0.32357        0.00121
C          2.78221       -1.23032        0.00150
C          4.09582       -0.78898        0.00179
C          4.53164        0.59450        0.00188
C          3.84552        1.78113        0.00176
C          2.52659        2.11296        0.00136
H          2.18862        3.14418        0.00149
H          4.49903        2.65052        0.00212
H          5.61262        0.69687        0.00214
H          4.87993       -1.53971        0.00200
H          2.55874       -2.29178        0.00147
H         -2.70837       -2.13393        0.00054
