30
Coordinates from ORCA-job ./opt_b97-3c_parallel
N         -3.51913       -3.79422        0.03714
C         -2.90857       -2.82852        0.02311
C         -2.10932       -1.64089        0.01488
C         -0.67243       -1.77057        0.01676
C          0.10598       -0.65383        0.01644
C         -0.11668        0.69027        0.01225
C         -1.23885        1.47273        0.00149
N         -0.98747        2.55137       -0.00518
H         -0.20895        3.19270       -0.13935
H         -1.83912        3.10838       -0.05752
C         -2.49252        0.87547       -0.00337
C         -3.67729        1.69285       -0.01757
N         -4.60282        2.36290       -0.04660
C         -2.87566       -0.47065        0.00425
H         -3.95186       -0.64988        0.00132
C          1.30674        0.89904        0.02134
C          1.51824       -0.43636        0.02263
C          2.65955       -1.29458        0.02084
C          3.94230       -0.76044        0.01349
N          4.75643       -1.50587       -0.00453
H          4.66829       -2.49497       -0.22878
H          5.74304       -1.27107       -0.09525
C          4.32053        0.64567        0.02476
C          3.53225        1.76803        0.05747
C          2.19227        2.00534        0.03309
H          1.78326        3.01006        0.03962
H          4.11518        2.68428        0.10991
H          5.39403        0.82129        0.01615
H          2.48973       -2.36891        0.01518
H         -0.23932       -2.76624        0.02345
