30
Coordinates from ORCA-job ./opt_b97-3c_parallel
N          5.71614        0.23661        0.01578
C          4.57886        0.14096        0.00592
C          3.14908        0.08616       -0.00455
C          2.49193       -1.20127        0.00045
C          1.07056       -1.45631       -0.00793
C          0.72314       -2.83966        0.02496
N          0.49172       -3.95756        0.06515
C          0.15175       -0.42393       -0.02715
C          0.30190        0.93847       -0.02591
N          1.33979        1.84958       -0.01196
C          2.59386        1.36017       -0.00793
N          2.86000        2.43990       -0.00721
H          3.86375        2.24214       -0.00130
H          2.80519        3.45944       -0.02105
C         -1.10765        1.10660       -0.02727
C         -1.24624       -0.31034       -0.03889
C         -2.34606       -1.14238       -0.07163
N         -2.22635       -2.47038       -0.19057
H         -3.02444       -3.08876       -0.04217
H         -1.39570       -2.96618        0.12897
C         -3.57759       -0.61379       -0.04137
C         -3.80915        0.73944        0.01648
N         -4.84283        1.13895        0.06667
H         -5.53906        0.39625        0.14792
H         -5.39033        2.00037        0.02885
N         -3.34998        2.05133        0.03297
C         -2.00425        2.15041       -0.00443
H         -1.80199        3.23275        0.01204
H         -4.43018       -1.29398       -0.09160
H          3.14622       -2.07074        0.01552
