23
Coordinates from ORCA-job ./opt_b97-3c_parallel
N         -5.96115       -0.70952       -0.03929
C         -4.83509       -0.50987       -0.03050
C         -3.43617       -0.22413       -0.01112
C         -2.44918       -1.26798        0.01253
N         -1.35261       -1.40389        0.02986
C         -0.57548       -0.61829        0.03058
C         -0.72647        0.83542        0.02009
N         -1.81521        1.69229       -0.00327
C         -3.03000        1.10022       -0.01614
H         -3.71543        1.96085       -0.03536
C          0.66644        1.06070        0.02252
C          0.84359       -0.33088        0.03222
C          2.03630       -1.13160        0.02871
C          3.26621       -0.48814        0.01456
C          4.46620       -1.26302        0.00600
N          5.34320       -1.98411       -0.12623
C          3.33228        0.95612        0.00517
N          2.64794        1.83447        0.00712
C          1.58479        2.16424        0.00746
H          1.08402        3.14393       -0.00119
H          4.33721        1.40557       -0.01077
H          1.93725       -2.21263        0.03326
H         -2.82827       -2.30130        0.01589
