28
Coordinates from ORCA-job ./opt_b97-3c_parallel
N          5.68754        0.49100        0.01531
C          4.54777        0.40532       -0.00232
C          3.11251        0.32871       -0.00217
C          2.40390        1.59706       -0.00292
C          1.06680        1.85403       -0.00034
C          0.12569        0.89184        0.00230
C          0.18026       -0.52821        0.00008
C          1.20499       -1.43222       -0.00368
C          2.59440       -0.98009       -0.00181
N          3.11197       -1.96298       -0.00028
H          3.06121       -2.96899        0.14765
H          4.10494       -1.73423       -0.04076
H          0.93842       -2.49204       -0.00579
C         -1.24529       -0.61086        0.00101
C         -1.30335        0.80305        0.00400
C         -2.38802        1.73205        0.00833
C         -3.67662        1.28462        0.02375
C         -3.97097       -0.05334       -0.00732
N         -5.01227       -0.42628       -0.04276
H         -5.57810       -1.27471       -0.02415
H         -5.67664        0.34214       -0.13146
N         -3.53421       -1.32847       -0.02203
C         -2.22257       -1.66454       -0.00901
H         -1.80088       -2.68130       -0.01695
H         -4.47356        2.02014        0.12925
H         -2.15219        2.79221        0.01082
H          0.74370        2.89212       -0.00754
H          3.05611        2.46631       -0.00493
