33
Coordinates from ORCA-job ./opt_b97-3c_parallel
N         -5.66072       -2.04089        0.00486
C         -4.74786       -1.35450        0.00208
C         -3.57734       -0.52619        0.00066
C         -3.80205        0.90892        0.00492
N         -2.93837        1.95785        0.00439
C         -1.59321        2.05610        0.00063
N         -1.74416        3.15322        0.00377
H         -2.41535        3.92386        0.01370
H         -0.83200        3.61664       -0.00436
C         -0.78655        0.87240       -0.00309
C         -1.14172       -0.49663       -0.00415
C          0.27020       -0.79635       -0.00363
N          0.98851       -1.97743        0.00078
C          2.33247       -1.88525        0.00430
N          2.16636       -2.98644        0.00702
H          3.17045       -3.18055       -0.00666
H          1.73103       -3.91010        0.03687
C          3.25026       -0.83596        0.00393
C          4.55659       -1.43867        0.00827
N          5.57035       -1.96324        0.01224
C          3.01813        0.60836        0.00095
N          3.91451        1.26354        0.00131
H          4.89247        0.96932       -0.00622
H          3.94125        2.28417        0.01008
C          1.79155        1.26932       -0.00152
C          1.55093        2.68665       -0.00336
N          1.23509        3.78432       -0.01670
C          0.55541        0.53734       -0.00323
C         -2.34209       -1.16719       -0.00332
N         -2.08475       -2.24728       -0.00642
H         -1.46302       -3.05446       -0.02862
H         -3.02496       -2.64687       -0.00487
H         -4.83795        1.28365        0.00935
