29
Coordinates from ORCA-job ./opt_b97-3c_parallel
N         -4.60973       -0.02841       -0.12736
C         -3.26889        0.04849       -0.05202
C         -2.95429        1.38471       -0.02643
C         -1.60517        1.88866       -0.01176
C         -0.57161        0.98248       -0.02877
C         -0.49549       -0.44963       -0.06106
C         -1.42179       -1.44787       -0.08594
N         -0.99786       -2.72155       -0.14556
H         -1.65965       -3.48178        0.00854
H         -0.11373       -2.99437        0.27592
C         -2.77223       -1.23129       -0.06132
H         -3.44254       -2.08923       -0.02976
C          0.94738       -0.33816       -0.05353
N          1.94455       -1.15876       -0.06673
C          3.07887       -0.53802       -0.03393
N          3.61850       -1.50589       -0.05813
H          4.62242       -1.42554       -0.21279
H          3.42722       -2.50741       -0.01856
C          3.79425        0.64259        0.01096
C          3.14431        1.93797        0.03678
C          1.77510        2.15934        0.02224
C          0.83868        1.07582       -0.01855
H          1.39017        3.17481        0.04620
H          3.81296        2.79333        0.07169
H          4.88177        0.65411        0.02849
H         -1.44640        2.96217        0.01082
H         -3.72519        2.15289       -0.01387
H         -5.09522       -0.88133        0.14633
H         -5.18924        0.76277        0.14820
