26
Coordinates from ORCA-job ./opt_b97-3c_parallel
N          4.80777        1.89853       -0.01821
C          3.85252        1.27108       -0.00086
C          2.63741        0.51497        0.00147
C          1.37862        1.21631        0.01392
C          0.16276        0.48703        0.00787
C         -0.13714       -0.81708       -0.00692
C          0.62396       -1.95084       -0.01629
N          0.13602       -2.94137       -0.02388
H          0.61674       -3.83184        0.08706
H         -0.84597       -3.10705        0.18647
C          2.00533       -1.99290       -0.01713
C          2.90789       -0.85538       -0.01129
H          3.95325       -1.15646       -0.01847
H          2.50354       -2.96096       -0.02634
C         -1.46575       -0.49729       -0.01153
C         -1.20517        0.93485        0.00640
N         -1.90913        1.78802        0.01013
C         -3.01349        1.83850        0.00349
C         -4.03520        0.93217       -0.01434
C         -3.89570       -0.42992       -0.03896
C         -2.66362       -1.18242       -0.03493
H         -2.69560       -2.26634       -0.05586
H         -4.80639       -1.01958       -0.06479
H         -5.04826        1.32768       -0.00679
H         -3.36114        2.88024        0.07528
H          1.35470        2.30171        0.02245
