31
Coordinates from ORCA-job ./opt_b97-3c_parallel
N         -6.11772       -0.14053       -0.04920
C         -4.97549       -0.09773       -0.04032
C         -3.54693       -0.00521       -0.02200
C         -2.91664        1.29854        0.06694
C         -1.59347        1.62058        0.08981
C         -0.60389        0.70641        0.04008
C         -0.60443       -0.70214       -0.02745
C         -1.59011       -1.64677       -0.09054
C         -2.98947       -1.28526       -0.09469
H         -3.66002       -2.13976       -0.15826
H         -1.33103       -2.69879       -0.14835
C          0.81994       -0.71445       -0.00767
C          0.83768        0.69580        0.05321
C          1.84845        1.58757        0.11477
N          1.53964        2.89459        0.09834
H          2.23151        3.57940       -0.19955
H          0.62983        3.19727       -0.24362
C          3.17431        1.27098        0.06363
C          3.78277       -0.05004        0.02198
N          4.88826       -0.03399        0.00502
H          5.46538        0.79629       -0.11371
H          5.48996       -0.83707       -0.16682
C          3.21498       -1.32735        0.00004
C          1.80472       -1.66811       -0.02063
N          1.55256       -2.74267       -0.04976
H          2.21932       -3.46687        0.20949
H          0.63683       -3.05686        0.26434
H          3.89608       -2.17937       -0.01711
H          3.87933        2.10137        0.06632
H         -1.32347        2.66683        0.20806
H         -3.61908        2.12540        0.11904
