29
Coordinates from ORCA-job ./opt_b97-3c_parallel
N         -5.23107       -1.21434       -0.00383
C         -4.21794       -0.68512       -0.00307
C         -2.92568       -0.05558       -0.00479
C         -1.79918       -0.88193       -0.01351
C         -0.50409       -0.40657       -0.00806
C          0.10435        0.80156        0.00522
C         -0.46954        2.10282        0.01504
N          0.22435        2.96270        0.03527
H          1.18482        3.29922        0.02385
H         -0.36017        3.79436        0.11769
C         -1.82514        2.26917       -0.00637
C         -2.88855        1.39977        0.00520
H         -3.87485        1.85644        0.01439
H         -2.15384        3.30824       -0.04529
C          1.44427        0.26272        0.01045
N          2.57995        0.88745        0.02289
C          3.56727        0.03408        0.00896
N          4.41144        0.74617       -0.07410
H          5.34180        0.33204       -0.12922
H          4.55896        1.75478       -0.10356
C          3.77197       -1.32612        0.04491
C          2.72268       -2.20520        0.02072
N          1.33746       -2.24264        0.00028
C          0.81372       -0.96261       -0.00236
H          2.84071       -3.29967        0.02487
H          4.77948       -1.72956        0.13874
N         -1.74768       -1.98944       -0.02068
H         -2.68423       -2.39302       -0.01049
H         -1.09665       -2.77349       -0.01888
