27
Coordinates from ORCA-job ./opt_b97-3c_parallel
N          5.53150        1.13258       -0.02695
C          4.46384        0.72309       -0.03240
C          3.11662        0.24137       -0.02689
C          2.03580        1.19038       -0.05739
C          0.69913        0.71730       -0.04315
C          0.09923       -0.48866       -0.00987
C          0.61546       -1.81615        0.02112
N         -0.05432       -2.69253        0.03841
H          0.30267       -3.64529        0.00676
H         -1.07034       -2.76180        0.00543
C          1.98157       -2.03817        0.02538
C          3.05028       -1.15118        0.00682
H          4.01036       -1.66289        0.02075
H          2.29187       -3.08138        0.04713
C         -1.15703        0.06756       -0.03076
C         -0.56625        1.38309       -0.07109
C         -1.00268        2.66866       -0.15522
C         -2.34732        2.48643       -0.07512
N         -3.58682        1.88743       -0.00781
C         -3.61464        0.53457       -0.01097
C         -2.46733       -0.35802       -0.02599
C         -3.19680       -1.58736       -0.00259
N         -3.40535       -2.71098       -0.03634
H         -4.71360        0.59263        0.01167
H         -2.76532        3.50394       -0.03844
H         -0.50558        3.46950        0.38727
H          2.23621        2.25710       -0.08512
