29
Coordinates from ORCA-job ./opt_b97-3c_parallel
N         -5.33945       -1.56265       -0.00436
C         -4.21908       -1.34382       -0.00612
C         -3.15280       -0.39136       -0.00429
C         -1.84494       -1.00457       -0.00416
C         -0.70875       -0.14607       -0.00253
C         -0.54519        1.19972       -0.00133
C          0.87570        1.01029       -0.00199
N          1.97847        1.83543       -0.00217
C          3.12753        1.06784       -0.00360
N          3.87067        1.88813       -0.00436
H          3.76647        2.90478       -0.00334
H          4.88227        1.74025       -0.00716
N          3.74819       -0.17552       -0.00521
C          3.00459       -1.36507       -0.00484
N          3.85752       -2.07698       -0.00585
H          3.47972       -3.02955       -0.00822
H          4.87162       -2.21767       -0.00350
C          1.54897       -1.46788       -0.00390
C          0.93572       -2.75611       -0.00476
N          0.48467       -3.80440       -0.00520
C          0.72365       -0.35349       -0.00280
C         -1.41719        2.33335       -0.00095
N         -1.34654        3.43868       -0.00036
H         -0.58646        4.11961        0.00183
H         -2.19257        4.01364       -0.00088
N         -2.79678        2.15477       -0.00216
C         -3.51817        0.95130       -0.00355
H         -4.57882        1.25317       -0.00399
H         -1.74055       -2.08588       -0.00533
