27
Coordinates from ORCA-job ./opt_b97-3c_parallel
N         -5.54022       -1.67297       -0.02074
C         -4.82260       -0.78514        0.00967
C         -3.47899       -0.29667        0.00669
C         -2.37793       -1.14371        0.00484
C         -1.07273       -0.54405        0.00170
C         -0.61480        0.74419        0.00049
C         -1.32721        1.99298        0.00135
N         -2.42887        1.84787        0.00334
C         -3.28819        1.13769        0.00539
H         -4.17600        1.78918        0.00618
H         -1.15501        3.08102        0.00081
C          0.70261        0.35350       -0.00121
C          0.27670       -1.01333       -0.00045
N          0.91845       -2.22471       -0.00070
C          2.27326       -1.99073       -0.00246
N          2.63373       -3.03692       -0.00197
H          3.57000       -3.44346       -0.00225
H          2.00214       -3.84051        0.00069
N          3.36896       -1.14048       -0.00385
C          3.22078        0.25439       -0.00364
N          4.30042        0.51369       -0.00469
H          4.30398        1.53743       -0.00479
H          5.29013        0.25734       -0.00592
C          1.97853        1.01813       -0.00256
C          2.03047        2.44565       -0.00279
N          2.11937        3.58326       -0.00324
H         -2.46810       -2.22570        0.00559
