25
Coordinates from ORCA-job ./opt_b97-3c_parallel
N         -3.39361       -1.55774       -0.10354
C         -2.89631       -0.57066       -0.06289
N         -1.64743       -1.16973       -0.06297
C         -0.59177       -0.26837       -0.02763
C         -0.47721        1.10326       -0.00089
N         -1.32208        2.14654        0.00833
C         -2.63505        1.72184       -0.01309
C         -3.48800        0.66057       -0.04048
H         -4.53348        0.78539        0.23551
H         -3.03758        2.74651        0.00239
C          0.89163        0.99072        0.00430
C          0.82748       -0.44060       -0.02128
C          1.73542       -1.46483       -0.05088
N          1.24672       -2.71579       -0.07378
H          0.44193       -2.96348        0.49692
H          1.89174       -3.50524       -0.04067
C          3.04128       -1.18754       -0.06161
C          3.47503        0.10874       -0.03239
N          3.28677        1.47915        0.00213
C          1.98661        1.82611        0.01589
H          2.02397        2.92587        0.03406
H          4.56667        0.25197       -0.03278
H          3.77362       -1.99222       -0.08853
H         -3.16868       -2.54820       -0.00878
H         -4.39354       -1.51963       -0.29959
