30
Coordinates from ORCA-job ./opt_b97-3c_parallel
N         -2.41511       -3.29815       -0.01264
C         -2.27012       -2.16412        0.00379
C         -2.06719       -0.73686        0.01961
C         -0.75132       -0.25494        0.03517
C         -0.36038        1.19114        0.03802
C         -1.28113        2.24726        0.04572
C         -2.71393        2.10557        0.04535
N         -3.37870        1.22096        0.01389
C         -3.22984        0.12478        0.00925
N         -4.52685       -0.31036       -0.01950
H         -5.28149        0.35311       -0.15170
H         -4.72470       -1.29676       -0.14972
H         -3.46974        2.87860        0.12170
H         -0.94821        3.28191        0.05713
C          1.02116        0.81267        0.03870
C          0.62645       -0.61985        0.04426
C          1.43770       -1.75926        0.06181
C          2.82794       -1.79782        0.06997
C          3.75461       -0.75125        0.05669
N          5.06716       -1.13463        0.06523
H          5.29229       -2.11076       -0.09276
H          5.78173       -0.44121       -0.12611
C          3.52875        0.62884        0.03530
C          2.32382        1.32791        0.02730
N          2.32268        2.69414        0.00436
H          3.19220        3.17742       -0.19240
H          1.45345        3.17516       -0.19714
H          4.42177        1.25193        0.02635
H          3.24548       -2.80296        0.08740
H          0.93223       -2.72195        0.07160
