28
Coordinates from ORCA-job ./opt_b97-3c_parallel
N          3.81687        1.89278        0.01847
C          2.74198        1.05273        0.04398
N          3.01831       -0.01900        0.18944
C          2.49197       -1.00490        0.13666
N          3.33813       -2.06950        0.05003
H          2.96765       -2.98277       -0.18487
H          4.32868       -1.90575       -0.08738
N          1.45545       -1.40549        0.02845
C          0.51231       -0.73343       -0.67314
C          0.29001        0.69060       -0.32085
C          1.37463        1.52576       -0.00332
H          1.20767        2.52793        0.38377
C         -1.11029        0.92543       -0.05512
C         -0.86463       -0.53186       -0.17093
C         -1.69782       -1.29151       -0.01636
N         -1.74683       -2.64334        0.18384
H         -2.63742       -3.12550        0.23292
H         -0.89751       -3.19463        0.12962
N         -2.81633       -1.13406        0.09446
C         -3.45819       -0.19827        0.17528
N         -3.13951        0.89227        0.15151
C         -2.13158        1.39400        0.04358
N         -2.17495        2.75430       -0.05551
H         -3.06958        3.22117       -0.14824
H         -1.33894        3.26635       -0.31268
H         -4.53634       -0.24523        0.15450
H          3.67448        2.89398        0.08789
H          4.73761        1.52732        0.23420
