34
Coordinates from ORCA-job ./opt_b97-3c_parallel
N          5.06056        1.91797       -0.15432
C          4.09373        1.31582       -0.10035
C          2.91038        0.50062       -0.03356
C          3.27612       -0.84871        0.00126
N          2.67281       -2.06608        0.08147
C          1.29135       -2.29012        0.12418
N          1.22146       -3.39372        0.20044
H          1.89807       -4.11504       -0.06140
H          0.55006       -3.88855        0.78991
C          0.33646       -1.21985        0.05850
C          0.44994        0.18467        0.01701
C          1.57498        1.07419       -0.01139
N          1.39640        2.16087       -0.04198
H          2.28503        2.66157       -0.08576
H          0.68927        2.89420        0.00540
C         -0.99219        0.28587        0.02315
C         -1.10736       -1.14410        0.05375
C         -2.15129       -2.01617        0.08776
C         -3.33271       -1.33980       -0.03609
N         -4.27462       -1.91549       -0.16880
H         -5.28301       -1.73962       -0.14367
H         -4.21907       -2.91123       -0.39506
N         -4.03721       -0.14534       -0.07012
C         -3.39706        1.09981        0.01160
N         -4.32908        1.70401        0.01153
H         -3.97479        2.66362        0.05816
H         -5.34488        1.81723        0.05532
C         -1.96211        1.36900        0.03457
C         -1.56090        2.73945        0.07096
N         -1.29364        3.84706        0.10386
H         -2.03295       -3.04625       -0.24877
N          4.17362       -1.51209       -0.00969
H          4.80556       -2.31501       -0.06336
H          4.81352       -0.71322       -0.05182
