25
Coordinates from ORCA-job ./opt_b97-3c_parallel
N         -1.57846       -3.36148        0.00059
C         -1.52978       -2.22029        0.00076
C         -1.53325       -0.79275        0.00132
C         -0.30676       -0.04598        0.00255
C          0.02195        1.28613        0.00403
N         -0.57838        2.47246        0.00438
C         -1.92138        2.17730        0.00363
N         -2.99998        1.30869        0.00277
C         -2.80147       -0.07704        0.00187
N         -3.88063       -0.32204        0.00191
H         -4.85583       -0.02353        0.00378
H         -3.90370       -1.34319        0.00194
H         -2.22752        3.23560        0.00409
C          1.40269        0.91472        0.00429
C          1.08137       -0.40173        0.00307
C          1.82146       -1.62544        0.00216
C          3.20768       -1.63323        0.00285
C          4.06931       -0.46407        0.00432
C          3.80591        0.88210        0.00488
C          2.64531        1.59053        0.00539
H          2.66021        2.67588        0.00620
H          4.69861        1.50419        0.00455
H          5.12535       -0.71816        0.00485
H          3.70736       -2.59736        0.00233
H          1.26756       -2.55794        0.00100
