30
Coordinates from ORCA-job ./opt_b97-3c_parallel
N          5.06208        2.30824       -0.00506
C          4.08757        1.71492       -0.01033
C          2.89843        0.91986       -0.01348
C          1.61904        1.58584       -0.02389
C          0.43399        0.79680       -0.02025
C          0.15142       -0.52736       -0.00940
C          0.95453       -1.71886       -0.00148
N          0.96861       -2.82681        0.00391
H          1.54508       -3.67109       -0.00809
H          0.01172       -3.18914        0.01252
N          2.30146       -1.56328       -0.00125
C          3.10229       -0.46233       -0.00590
N          3.97515       -1.15298       -0.00027
H          4.67789       -0.40863        0.00842
H          4.53405       -2.00911       -0.01630
C         -1.26242       -0.21862       -0.01602
C         -0.95906        1.12458       -0.02898
C         -1.74489        2.23518       -0.05833
C         -3.07845        1.94368       -0.03323
N         -3.85808        2.73166       -0.04304
H         -4.87815        2.78138        0.00957
H         -3.56352        3.70601       -0.12696
N         -4.06544        0.97318       -0.01470
C         -3.74234       -0.38885       -0.00867
C         -2.41665       -0.98019       -0.01091
C         -2.26997       -2.39929        0.00095
N         -2.09074       -3.52621        0.01062
H         -4.68735       -0.95573        0.00156
H         -1.35541        3.20766        0.24168
H          1.55789        2.67093       -0.03064
