23
Coordinates from ORCA-job ./opt_b97-3c_parallel
N          3.91049        1.21559       -0.00968
C          3.05425        0.51780       -0.00822
N          1.92509        1.31997       -0.00763
C          0.76411        0.63052       -0.00809
C          0.45477       -0.79115       -0.00945
N          1.22714       -1.89321       -0.00902
C          2.57902       -1.60462       -0.00827
N          3.50212       -0.69695       -0.00825
H          3.16868       -2.53580       -0.00644
C         -0.88472       -0.48323       -0.00952
C         -0.58481        0.89071       -0.00814
C         -1.40636        2.05113       -0.00702
N         -2.74376        1.92195       -0.00518
C         -3.54679        0.83390       -0.00507
N         -3.33916       -0.54985       -0.00826
C         -2.11623       -1.20987       -0.01077
N         -2.42705       -2.27074       -0.01306
H         -1.81586       -3.08631        0.04109
H         -3.37348       -2.65069       -0.07304
H         -4.55891        1.27046       -0.00269
H         -1.25649        3.14197       -0.00617
H          3.94326        2.23530       -0.02571
H          4.88547        0.91294       -0.00187
