27
Coordinates from ORCA-job ./opt_b97-3c_parallel
N         -4.88557       -1.92497        0.00292
C         -3.93273       -1.29850        0.00247
C         -2.71383       -0.54473        0.00183
C         -2.99737        0.81727        0.00055
N         -2.34507        2.00957       -0.00065
C         -0.95792        2.14832       -0.00122
N         -0.74550        3.23380       -0.00176
H          0.20630        3.60309       -0.00381
H         -1.34935        4.05812       -0.00345
C         -0.09952        1.00282       -0.00127
C         -0.31562       -0.33141       -0.00055
C          1.10433       -0.50492       -0.00200
N          1.86721       -1.61033       -0.00132
C          3.20280       -1.21535       -0.00209
N          3.86449       -2.09834       -0.00165
H          4.88533       -2.10935       -0.00176
H          3.58044       -3.07818       -0.00059
N          4.04236       -0.10468       -0.00330
C          3.36078        1.11098       -0.00378
N          2.24160        1.78350       -0.00382
C          1.33728        0.85606       -0.00273
H          4.22729        1.79270       -0.00506
C         -1.40553       -1.16140        0.00126
N         -1.19016       -2.24564        0.00225
H         -0.45873       -2.95422        0.00099
H         -2.07235       -2.76114        0.00158
H         -4.02329        1.22096        0.00024
