28
Coordinates from ORCA-job ./opt_b97-3c_parallel
N          4.80767        2.83221        0.00237
C          3.93108        2.09875        0.00180
C          2.86889        1.13990        0.00083
C          1.61922        1.72876       -0.00061
C          0.46764        0.99960       -0.00114
C          0.14499       -0.29938       -0.00090
C          0.92665       -1.48851        0.00028
C          2.31002       -1.42430        0.00165
C          2.86666       -2.74208        0.00311
N          3.34549       -3.77982        0.00432
C          3.19655       -0.27420        0.00189
H          4.25828       -0.50677        0.00376
H          0.41226       -2.44535        0.00009
C         -1.18766       -0.01938       -0.00242
C         -0.92246        1.41272       -0.00325
N         -1.63969        2.25531       -0.00491
C         -2.74420        2.30523       -0.00663
C         -3.79010        1.42554       -0.00593
C         -3.62518        0.05947       -0.00508
N         -4.60950       -0.44956       -0.00582
H         -5.59664       -0.19977       -0.00603
H         -4.56641       -1.46765       -0.00456
C         -2.39134       -0.70688       -0.00338
C         -2.28789       -2.13593       -0.00233
N         -2.46329       -3.26615       -0.00180
H         -4.79300        1.85841       -0.00650
H         -3.18519        3.31395       -0.00589
H          1.53278        2.81274       -0.00156
