30
Coordinates from ORCA-job ./opt_b97-3c_parallel
N          5.64405        0.67397        0.02533
C          4.54628        0.35841        0.01586
C          3.18127       -0.08365        0.00633
C          2.97563       -1.52152        0.00564
N          1.84997       -2.28133        0.00053
C          0.53802       -1.97823       -0.00490
N          0.21555       -3.03472       -0.00501
H          0.48626       -4.01758       -0.01932
H         -0.80659       -3.03735       -0.00800
C          0.13786       -0.61281       -0.00797
C          0.84477        0.60513       -0.00785
C         -0.40241        1.34356       -0.01096
N         -0.75163        2.58781       -0.00840
C         -2.04376        2.61435       -0.00992
C         -3.31577        2.09582       -0.00712
C         -3.50852        0.65264        0.00213
N         -4.60422        0.49324        0.01099
H         -4.99716       -0.44584        0.05452
H         -5.39129        1.13597        0.09088
C         -2.48547       -0.29785       -0.00057
C         -2.79348       -1.69684        0.00667
N         -2.97326       -2.82537        0.01225
C         -1.09949        0.09158       -0.00892
H         -4.16347        2.78152       -0.01046
H         -2.08810        3.71437       -0.01783
C          2.18809        0.89011       -0.00106
N          2.29238        1.99368       -0.00012
H          3.20999        2.43935        0.01170
H          1.60850        2.75150       -0.00086
H          3.85832       -2.17972        0.01141
