27
Coordinates from ORCA-job ./opt_b97-3c_parallel
N         -4.81354       -1.50473       -0.00128
C         -3.83860       -0.90916        0.00665
C         -2.59800       -0.18722        0.00108
C         -1.44419       -0.96746       -0.00171
N         -1.31267       -2.06782       -0.00205
H         -2.14072       -2.66376       -0.00208
H         -0.50794       -2.69585       -0.00338
C         -0.19737       -0.40248       -0.00301
C          0.26362        0.87072       -0.00291
C         -0.40997        2.11558       -0.00292
N         -0.08889        3.17118       -0.00357
H          0.91008        3.37540       -0.01839
H         -0.55828        4.07663       -0.00704
N         -1.78716        2.29349       -0.00117
C         -2.69071        1.27109        0.00168
H         -3.71847        1.66668        0.00358
C          1.61904        0.42589       -0.00290
C          1.17124       -0.86088       -0.00358
N          1.81847       -2.07143       -0.00335
C          3.17785       -1.83367       -0.00222
C          4.24317       -0.97542       -0.00108
C          4.11337        0.35788       -0.00078
C          2.91599        1.03300       -0.00156
H          2.95010        2.11705       -0.00041
H          5.02546        0.95085        0.00063
H          5.24440       -1.40136       -0.00023
H          3.44748       -2.90103       -0.00313
