31
Coordinates from ORCA-job ./opt_b97-3c_parallel
N          5.93297        0.99771       -0.03275
C          4.80894        0.79623       -0.05090
C          3.39748        0.55782       -0.03687
C          2.74264        1.79351       -0.05778
C          1.32451        2.05024       -0.03811
C          0.42020        1.02882       -0.01458
C          0.52561       -0.38412       -0.01201
C          1.59779       -1.22949       -0.00797
C          1.53389       -2.65898        0.00492
N          1.28427       -3.72789        0.31982
C          2.91589       -0.81343       -0.00916
H          3.71240       -1.55603        0.00476
C         -0.90799       -0.48748       -0.01064
C         -1.00855        0.93167       -0.00296
C         -2.09398        1.87803        0.03343
N         -2.06811        2.98200        0.07535
H         -2.65053        3.81625        0.15580
H         -1.11876        3.29511        0.28183
N         -3.41910        1.42846        0.02823
C         -3.66947        0.05984       -0.01101
N         -4.75461        0.28979       -0.01637
H         -5.49533        0.99100       -0.06482
H         -5.24864       -0.60404       -0.03604
C         -3.22942       -1.23716       -0.04765
C         -1.89205       -1.53189       -0.01332
N         -1.68854       -2.61419       -0.00982
H         -0.72784       -2.95211        0.04997
H         -2.27177       -3.45052       -0.01859
H         -3.95841       -2.04273       -0.17830
H          0.99413        3.08342       -0.05611
H          3.34500        2.70073       -0.08723
