33
Coordinates from ORCA-job ./opt_b97-3c_parallel
N         -1.12735       -3.68470        0.11728
C         -1.31247       -2.55721        0.06119
C         -1.59604       -1.15099        0.00805
C         -0.52494       -0.20381       -0.00040
C         -0.50090        1.21065       -0.01362
C          0.92443        1.17739        0.00456
C          0.91748       -0.23637        0.01478
C          1.95683       -1.22828        0.01648
N          1.79710       -2.31895        0.00635
H          0.88879       -2.77821       -0.00826
H          2.49487       -3.05797       -0.04826
C          3.30922       -0.89490        0.00592
C          3.82625        0.46720        0.01407
N          4.93240        0.45820       -0.01107
H          5.52380       -0.35028       -0.19347
H          5.54587        1.27031        0.01173
C          3.26535        1.72273        0.05964
C          1.97027        2.13348        0.01582
H          1.70427        3.18560        0.01326
H          3.96042        2.55938        0.15071
H          4.04474       -1.70335       -0.01247
C         -1.45693        2.17610       -0.02955
C         -2.79681        1.84548       -0.05596
N         -3.43165        2.75133       -0.07355
H         -3.15174        3.70433        0.14882
H         -4.44886        2.72679       -0.02632
C         -3.48318        0.63240       -0.06461
C         -2.92648       -0.72565       -0.02672
N         -3.81766       -1.38925       -0.02850
H         -4.79992       -1.29566        0.22197
H         -3.59972       -2.38382        0.01016
H         -4.57513        0.71566       -0.09694
H         -1.13042        3.21519       -0.02836
