25
Coordinates from ORCA-job ./opt_b97-3c_parallel
N         -0.34145       -3.96711       -0.02675
C         -0.73230       -2.89324       -0.03856
C         -1.19087       -1.53952       -0.02648
C         -0.27764       -0.45284       -0.03004
C         -0.44006        0.95493       -0.00023
C         -1.51206        1.79600        0.03020
C         -2.84588        1.24117        0.03027
N         -3.61171        2.03602        0.04673
H         -4.60683        1.84511       -0.05382
H         -3.48215        3.02655       -0.14991
C         -3.24586       -0.09501        0.01780
C         -2.55134       -1.29853       -0.00268
H         -3.18427       -2.18198       -0.00028
H         -4.32361       -0.24519        0.02882
H         -1.35402        2.87203        0.05040
C          0.98309        1.10005       -0.00752
C          1.14457       -0.31150       -0.03984
C          2.28321       -1.18949       -0.06226
N          3.51559       -0.63648       -0.04043
C          3.70921        0.69434       -0.00755
N          3.19743        1.88770        0.01328
C          1.93148        2.16845        0.01810
H          1.63681        3.22779        0.04784
H          4.80721        0.76010        0.02205
H          2.26773       -2.28914       -0.08993
