25
Coordinates from ORCA-job ./opt_b97-3c_parallel
N          4.43755        2.24485       -0.00941
C          3.57252        1.49772        0.00810
C          2.46506        0.57864        0.00438
C          1.16899        1.21063        0.00308
C         -0.00300        0.41512        0.00042
C         -0.29219       -0.90906       -0.00137
C          0.51931       -2.07111       -0.00186
C          1.89432       -1.95562       -0.00026
C          2.70669       -0.80852        0.00254
N          3.73799       -1.22585        0.00331
H          4.46269       -0.50996       -0.00099
H          4.21991       -2.12263       -0.00120
H          2.36374       -2.94445       -0.00117
H          0.04578       -3.04770       -0.00365
C         -1.64683       -0.68430       -0.00205
C         -1.39738        0.71877       -0.00042
N         -2.18352        1.83884        0.00071
C         -3.48624        1.40748       -0.00028
N         -4.48707        0.46045       -0.00159
C         -4.15718       -0.89497       -0.00269
C         -2.83486       -1.49028       -0.00262
H         -2.74282       -2.57123       -0.00369
H         -5.13205       -1.40477       -0.00320
H         -3.98419        2.38876        0.00057
H          1.08060        2.29311        0.00462
