28
Coordinates from ORCA-job ./opt_b97-3c_parallel
N         -5.44303       -0.78997       -0.00827
C         -4.31399       -0.61370        0.01803
C         -2.89138       -0.40503        0.01491
C         -2.06448       -1.59875        0.04624
C         -0.70859       -1.72647        0.05499
C          0.14831       -0.68728        0.01910
C         -0.05436        0.70885       -0.01456
C         -1.15540        1.51691       -0.03035
C         -2.49827        0.94516       -0.01713
N         -3.10585        1.87485       -0.03938
H         -3.05974        2.88674        0.06243
H         -4.09431        1.63048       -0.07322
H         -0.98064        2.59496       -0.05429
C          1.34701        0.92229       -0.01119
C          1.57940       -0.48531        0.02129
C          2.71121       -1.25606        0.05537
N          2.54046       -2.58713        0.07272
H          3.31581       -3.20440       -0.16042
H          1.68821       -2.99598       -0.30476
C          3.91203       -0.67042        0.06548
C          4.02820        0.69317        0.03939
N          3.53214        1.98675        0.00372
C          2.18613        2.01257       -0.01889
H          1.81666        3.04850       -0.04076
H          5.08653        0.99416        0.05163
H          4.81342       -1.27892        0.09142
H         -0.29475       -2.72965        0.11248
H         -2.63067       -2.52559        0.06890
