29
Coordinates from ORCA-job ./opt_b97-3c_parallel
N          5.25430        1.08364       -0.00344
C          4.17197        0.72517       -0.00877
C          2.78387        0.34325       -0.01440
C          2.04570        1.53056       -0.00011
N          0.73383        1.86118        0.01493
C         -0.17468        0.82039        0.00822
C         -0.06836       -0.59528       -0.02856
C          0.99847       -1.46127       -0.05463
C          0.50087       -2.80978       -0.09932
N          0.18196       -3.83034        0.30143
C          2.32467       -1.04516       -0.03696
N          3.10254       -1.83630       -0.04492
H          4.12117       -1.78594       -0.00694
H          2.87152       -2.82848        0.01991
C         -1.50528       -0.68948       -0.02479
C         -1.61022        0.73506        0.01254
C         -2.68844        1.60752        0.03990
N         -2.92054        2.69246        0.07353
H         -2.27867        3.48320        0.03205
H         -3.84027        3.13042        0.17483
N         -4.00193        1.27913        0.02925
C         -4.26742       -0.08651       -0.00809
N         -3.65082       -1.22760       -0.03399
C         -2.44455       -1.69641       -0.04483
H         -2.56129       -2.79167       -0.06935
H         -5.30772       -0.45123       -0.02380
N          2.07889        2.64497        0.01032
H          1.91145        3.64825       -0.08151
H          3.09856        2.57306        0.05657
