28
Coordinates from ORCA-job ./opt_b97-3c_parallel
N          5.62504        0.32748        0.00242
C          4.48318        0.37972        0.00177
C          3.05579        0.49088        0.00099
C          2.45596        1.81124        0.00188
C          1.14256        2.16438        0.00103
C          0.13686        1.26908        0.00031
C         -1.29040        1.28733       -0.00046
C         -1.35503       -0.11634       -0.00145
C         -2.43748       -1.05930       -0.00306
N         -2.31059       -2.15448       -0.00390
H         -3.07434       -2.82739       -0.00494
H         -1.44751       -2.69488       -0.00392
C         -3.77173       -0.66249       -0.00387
C         -4.24826        0.70693       -0.00331
C         -3.60141        1.91398       -0.00185
C         -2.29449        2.28473       -0.00072
H         -1.98919        3.32613        0.00004
H         -4.28071        2.76334       -0.00128
H         -5.33165        0.77612       -0.00427
H         -4.55549       -1.41801       -0.00516
C          0.08140       -0.15193       -0.00083
C          1.05869       -1.11216       -0.00147
C          0.84762       -2.52670       -0.00293
N          0.66998       -3.65593       -0.00364
C          2.47275       -0.78102       -0.00059
H          3.14584       -1.63864       -0.00114
H          0.89079        3.22216        0.00109
H          3.17661        2.62395        0.00319
