28
Coordinates from ORCA-job ./opt_b97-3c_parallel
N         -2.29532       -3.47364       -0.08531
C         -2.41112       -2.33789       -0.01858
C         -2.21133       -0.92377       -0.01306
C         -1.01935       -0.23715       -0.00931
C         -0.73914        1.17147       -0.01107
C         -1.54043        2.27696       -0.04050
C         -2.87104        1.94613        0.02532
N         -3.54162        1.05571        0.01398
C         -3.35707       -0.04435       -0.00068
H         -4.35506       -0.50887        0.00130
H         -3.47388        2.86114        0.12962
H         -1.17733        3.25394        0.26911
C          0.65931        0.83693       -0.00450
C          0.37167       -0.54489       -0.00596
C          1.14835       -1.74365       -0.00656
C          2.53159       -1.71951        0.00697
C          3.33691       -0.50615        0.01094
N          4.40366       -0.79843        0.03445
H          5.18380       -0.15778        0.16579
H          4.77827       -1.74003        0.13286
C          3.07011        0.84470       -0.01793
C          1.89535        1.54036       -0.00717
N          1.82543        2.64201       -0.00334
H          1.02297        3.20923       -0.26795
H          2.65931        3.18476       -0.21832
H          3.95263        1.48781       -0.06487
H          3.03271       -2.68667        0.01733
H          0.60990       -2.68555       -0.01048
