28
Coordinates from ORCA-job ./opt_b97-3c_parallel
N         -4.59712       -2.08966        0.06564
C         -4.10298       -1.06325       -0.00952
C         -2.74139       -0.62116       -0.00677
C         -3.06900        0.79214       -0.00581
N         -2.41714        2.03356       -0.00164
C         -1.07514        2.18405        0.00128
N         -0.90563        3.27592        0.00535
H         -1.49730        4.10816       -0.01004
H          0.05263        3.62527        0.03255
C         -0.16651        1.07816       -0.00173
C         -0.34758       -0.31963       -0.00534
C          1.07545       -0.44532       -0.00429
C          1.20682        0.92500       -0.00035
N          2.24794        1.75936        0.00463
C          3.38981        0.98685        0.00566
N          4.09527       -0.20221        0.00473
C          3.40461       -1.41669       -0.00043
N          4.24192       -2.13809        0.00105
H          5.25682       -2.03667       -0.05272
H          4.07844       -3.14414        0.06685
C          1.96007       -1.58312       -0.00570
H          1.53929       -2.58398       -0.01071
H          4.20452        1.72930        0.01005
C         -1.47899       -1.18323       -0.00487
N         -1.24956       -2.26333       -0.00309
H         -0.67154       -3.08453        0.17059
H         -2.20251       -2.62266       -0.08698
H         -3.92665        1.48444       -0.00649
