28
Coordinates from ORCA-job ./opt_b97-3c_parallel
N         -5.15020       -1.78142       -0.00597
C         -4.32714       -0.98928        0.01172
C         -3.27381       -0.02104        0.00903
C         -2.01073       -0.60138        0.00548
C         -0.86083        0.14582        0.00253
C         -0.55374        1.46688        0.00175
C         -1.37822        2.61708        0.00320
C         -2.73308        2.48355        0.00460
C         -3.57820        1.40129        0.00827
H         -4.64302        1.61765        0.01075
H         -3.25954        3.43633        0.00334
H         -0.92296        3.60294        0.00295
C          0.84630        1.19905        0.00011
N          1.90544        2.00613       -0.00062
C          3.00112        1.17064       -0.00122
N          3.82911        1.90480       -0.00147
H          3.64129        2.90935       -0.00131
H          4.84732        1.83072       -0.00263
N          3.56957       -0.09781       -0.00145
C          2.78517       -1.26300       -0.00077
N          3.61766       -1.99756       -0.00140
H          3.15168       -2.90898       -0.00061
H          4.61483       -2.22247       -0.00249
C          1.32861       -1.34870        0.00039
C          0.69664       -2.62928        0.00088
N          0.23771       -3.67370        0.00109
C          0.55078       -0.13837        0.00061
H         -1.92880       -1.68494        0.00583
