31
Coordinates from ORCA-job ./opt_b97-3c_parallel
N          5.23238        0.02772       -0.00139
C          4.08909       -0.00222       -0.00229
C          2.63756        0.04445       -0.00172
C          2.05275       -1.30708       -0.00161
N          2.63113       -2.25926       -0.00200
H          2.40161       -3.25192       -0.00054
H          3.64746       -2.19310       -0.00102
C          0.63211       -1.65297       -0.00057
C          0.01111       -2.95406       -0.00013
N         -0.10147       -4.09195       -0.00003
C         -0.35819       -0.69369       -0.00013
C         -0.35083        0.73341       -0.00052
C          0.66037        1.66449       -0.00125
C          0.01382        2.95570       -0.00123
N         -0.07521        4.09592       -0.00010
C          2.00430        1.29822       -0.00146
N          2.61256        2.23290       -0.00199
H          3.63086        2.19729       -0.00131
H          2.35658        3.21950       -0.00110
C         -1.79080        0.72756       -0.00082
C         -1.80421       -0.67945       -0.00013
C         -2.85725       -1.65786        0.00035
C         -4.20014       -1.32074        0.00063
C         -4.74225        0.02013        0.00060
C         -4.14242        1.24860        0.00033
C         -2.85291        1.67551       -0.00017
H         -2.62127        2.73398       -0.00037
H         -4.85651        2.06926        0.00025
H         -5.82784        0.04188        0.00078
H         -4.92314       -2.13053        0.00082
H         -2.58131       -2.70461        0.00037
