33
Coordinates from ORCA-job ./opt_b97-3c_parallel
N         -1.04191       -3.59915       -0.20753
C         -1.52555       -2.58980        0.02297
C         -1.85849       -1.19285        0.01719
C         -0.69739       -0.35589       -0.01328
C         -0.53999        1.05101       -0.04151
C          0.87854        0.88759       -0.05961
C          0.73393       -0.54046       -0.02043
C          1.61295       -1.61038        0.01707
N          1.81111       -2.70171        0.05676
H          2.34717       -3.57155        0.12657
H          0.84454       -3.03577       -0.01603
N          2.98702       -1.36676        0.03522
C          3.41193       -0.04129       -0.00259
N          4.51708       -0.12165        0.03915
H          5.06552       -0.97898        0.13883
H          5.22080        0.62075        0.04257
N          3.25842        1.34133       -0.05674
C          1.98782        1.81525       -0.09245
N          2.01230        2.92287       -0.14052
H          1.11927        3.38648       -0.32736
H          2.68721        3.69211       -0.11754
C         -1.38390        2.12267       -0.01695
C         -2.81321        1.92616        0.03921
N         -3.31304        2.90979        0.07838
H         -3.18988        3.88652        0.34283
H         -4.31869        2.74262        0.11368
C         -3.53816        0.73696        0.04433
C         -3.11160       -0.59391        0.02645
N         -3.97990       -1.28267        0.03331
H         -4.00860       -2.29405       -0.09308
H         -4.95401       -0.98167        0.06751
H         -4.62085        0.89534        0.07070
H         -0.99035        3.13805       -0.02228
