27
Coordinates from ORCA-job ./opt_b97-3c_parallel
N         -2.29109       -3.51226        0.00392
C         -2.26311       -2.36958        0.00415
C         -2.26871       -0.94180        0.00097
C         -1.03278       -0.20273        0.00547
C         -0.68866        1.17454        0.00212
N         -1.40124        2.34356       -0.00638
C         -2.72974        2.00645       -0.01063
N         -3.78711        1.12582       -0.01184
C         -3.54302       -0.24716       -0.00658
H         -4.54597       -0.69923       -0.00989
H         -3.10738        3.04019       -0.01584
C          0.68621        0.80496        0.00763
C          0.36023       -0.57377        0.01178
C          1.10393       -1.69736        0.01532
C          2.46501       -1.72139        0.02194
C          3.41479       -0.62073        0.01753
N          4.48190       -0.90472        0.02075
H          4.89867       -1.82777       -0.08212
H          5.23963       -0.22938       -0.05989
C          3.18501        0.82169        0.00941
C          1.91722        1.52305        0.00510
N          1.91857        2.62651       -0.00066
H          0.98787        3.04238        0.00208
H          2.58661        3.39133        0.06639
H          4.07172        1.45506        0.00750
H          2.91711       -2.71103        0.03085
H          0.58655       -2.65292        0.01594
