30
Coordinates from ORCA-job ./opt_b97-3c_parallel
N         -5.40518       -2.65054       -0.00530
C         -4.55057       -1.89211       -0.00394
C         -3.45021       -0.97685       -0.00302
C         -2.10667       -1.50440       -0.00084
C         -1.00746       -0.60838       -0.00086
C          0.42276       -0.80374       -0.00033
N          1.08717       -1.91611        0.00062
C          2.33568       -1.53758        0.00025
N          2.55154       -2.63029        0.00172
H          2.22945       -3.59893        0.00148
H          3.57296       -2.68830        0.00094
C          3.22993       -0.46804       -0.00142
C          4.65933       -0.60135       -0.00095
N          5.46561       -1.41160        0.00024
C          2.90120        0.88950       -0.00443
C          1.62432        1.44343       -0.00572
C          1.63387        2.87104       -0.01109
N          1.69404        4.01163        0.01870
C          0.49266        0.56569       -0.00254
C         -0.92346        0.73419       -0.00278
C         -1.81448        1.76564       -0.00463
N         -1.49012        2.81975       -0.00559
H         -2.24303        3.50700       -0.00506
H         -0.62510        3.35906       -0.00271
C         -3.18771        1.60442       -0.00522
C         -3.91237        0.34371       -0.00467
H         -4.99099        0.49235       -0.00591
H         -3.82660        2.48682       -0.00652
H          3.72822        1.60247       -0.00608
H         -1.93871       -2.57711        0.00020
