31
Coordinates from ORCA-job ./opt_b97-3c_parallel
N         -3.57902       -3.69147        0.01061
C         -2.94242       -2.74269        0.02164
C         -2.16815       -1.53115        0.01209
C         -0.78499       -1.67526       -0.00921
N         -0.18247       -2.60685       -0.02131
H          0.72561       -2.96743       -0.30868
H         -0.82385       -3.39888       -0.03412
C          0.06810       -0.60297       -0.02353
C         -0.07146        0.74589       -0.02680
C          1.35251        0.91399       -0.04120
N          2.13324        1.99041       -0.04624
C          3.46960        1.86716       -0.04357
C          4.32719        0.77644       -0.02184
C          3.90658       -0.61731       -0.00351
N          4.74825       -1.33299        0.02658
H          5.70645       -1.00836        0.14096
H          4.73985       -2.31605        0.29185
C          2.64826       -1.16746       -0.02039
C          1.50501       -0.43513       -0.03541
H          2.54324       -2.25158       -0.00395
H          5.39745        0.97140       -0.01415
H          3.90606        2.87691       -0.05434
C         -1.20081        1.62268       -0.00640
N         -0.82700        2.66618       -0.01370
H         -1.47888        3.44811        0.01517
H          0.11318        3.05984       -0.04067
C         -2.49216        1.10045        0.02318
C         -3.53059        2.09330        0.05210
N         -4.37579        2.86192        0.09233
C         -2.92614       -0.28935        0.03005
H         -4.00524       -0.42130        0.05211
