30
Coordinates from ORCA-job ./opt_b97-3c_parallel
N         -5.13530       -1.35580       -0.19990
C         -4.26558       -0.63421       -0.03107
C         -2.94508       -0.06990       -0.00761
C         -1.80473       -0.96486        0.02360
N         -1.73571       -2.06880        0.02840
H         -1.23704       -2.90646       -0.26354
H         -2.72922       -2.29021       -0.03723
C         -0.50472       -0.37225        0.04442
C         -0.03441        0.89167        0.03501
C         -0.62296        2.18543        0.01486
N          0.05846        3.05381        0.02601
H         -0.56751        3.85153        0.13038
H          0.95877        3.35237        0.39417
C         -1.99870        2.30836       -0.00725
C         -2.98032        1.32584       -0.01824
H         -3.97849        1.75926       -0.03998
H         -2.38629        3.32478       -0.02008
C          1.31175        0.40962        0.05549
C          0.83722       -0.88891        0.07362
C          1.50705       -2.07673        0.10913
C          2.87106       -2.06452        0.06744
N          3.98518       -1.24482       -0.00681
C          3.65759        0.10063       -0.02173
N          4.71944        0.38959       -0.12187
H          4.85650        1.34602       -0.44693
H          5.64760       -0.03222       -0.09860
C          2.57257        0.93005        0.03841
H          2.70178        2.01107        0.02101
H          3.20834       -3.11220        0.10039
H          0.96868       -3.00649        0.27713
