31
Coordinates from ORCA-job ./opt_b97-3c_parallel
N         -5.48904       -1.92835        0.00349
C         -4.45299       -1.44362        0.00033
C         -3.16434       -0.79670       -0.00451
C         -2.19860       -1.80920       -0.01529
C         -0.81371       -1.69305       -0.02358
C         -0.27614       -3.02163       -0.04266
N          0.11934       -4.09402       -0.06151
C         -0.12272       -0.50798       -0.02068
C         -0.59568        0.77020       -0.01218
C          0.75393        1.23846       -0.00784
C          1.20495       -0.09129       -0.01808
C          2.45803       -0.62523        0.00777
N          2.52790       -1.94755        0.25165
H          1.80003       -2.57032       -0.09038
H          3.41567       -2.43228        0.12770
C          3.57582        0.18910       -0.03070
C          4.83751       -0.49386       -0.08722
N          5.85553       -1.01355       -0.10858
C          3.68636        1.63872       -0.01273
N          2.73331        2.66330        0.01477
C          1.41280        2.43143        0.01408
H          1.13966        3.49730        0.03047
H          4.61578        2.22769       -0.02847
C         -1.82636        1.37814       -0.00281
C         -1.67341        2.81054        0.00342
N         -1.83402        3.94240       -0.00277
C         -3.01826        0.66234       -0.00027
N         -3.95277        1.26317        0.00676
H         -3.99447        2.28138        0.00764
H         -4.91528        0.92882        0.00787
H         -2.58907       -2.83158       -0.01715
