32
Coordinates from ORCA-job ./opt_b97-3c_parallel
N         -3.55424       -3.79552        0.10439
C         -3.05049       -2.77147        0.05095
C         -2.37478       -1.49991        0.00364
C         -1.02166       -1.78338       -0.02275
C         -0.08908       -0.79764       -0.03434
C         -0.06812        0.56025       -0.02910
C         -1.10399        1.55266       -0.03908
N         -0.52254        2.50034       -0.05592
H          0.04430        3.14922       -0.59871
H         -1.34567        3.03520        0.22189
C         -2.44909        1.16359       -0.03953
C         -3.28365        2.34408       -0.06676
N         -3.91037        3.29778       -0.08560
C         -3.03800       -0.18782       -0.00535
N         -4.14572       -0.25842        0.01540
H         -4.71355       -1.10073        0.10110
H         -4.79389        0.52779        0.04503
C          1.37553        0.54769       -0.01325
C          1.34163       -0.81385       -0.03031
N          2.31052       -1.78443       -0.03929
C          3.53652       -1.15959       -0.01198
N          4.20225       -2.04223       -0.05469
H          5.21472       -2.14407       -0.13323
H          3.83708       -2.99337       -0.13171
N          4.35466       -0.03936        0.03484
C          3.80702        1.20583        0.07447
N          4.64015        1.93336        0.13395
H          5.66177        1.93957        0.16367
H          4.37298        2.90917        0.28062
C          2.39457        1.56332        0.03660
H          2.10759        2.61051        0.06391
H         -0.66428       -2.81083       -0.01824
