26
Coordinates from ORCA-job ./opt_b97-3c_parallel
N          4.85283        2.14899        0.00109
C          3.98457        1.40626        0.00019
C          2.86798        0.51168        0.00190
C          1.53594        1.06092        0.00912
C          0.42869        0.17775        0.01865
C          0.26780       -1.16764        0.01429
C          1.15338       -2.20155        0.00001
C          2.52405       -2.05564       -0.00733
C          3.29025       -0.82023       -0.00454
H          4.36388       -0.99981       -0.01055
H          3.11445       -2.96724       -0.01654
H          0.75526       -3.21205       -0.00590
C         -1.10886       -1.06716        0.01546
C         -0.98010        0.35573        0.02196
N         -1.82969        1.38988       -0.00524
C         -3.13344        1.08552       -0.00230
N         -3.45172        2.14379       -0.04062
H         -4.45692        2.24813       -0.17381
H         -3.07954        3.09199        0.01281
C         -3.90710       -0.04128        0.04244
C         -3.52864       -1.35620        0.00033
C         -2.19726       -1.90989       -0.00438
H         -2.06647       -2.98797       -0.02455
H         -4.32803       -2.09141       -0.01923
H         -4.98095        0.11715        0.13543
H          1.38110        2.13562        0.01189
