30
Coordinates from ORCA-job ./opt_b97-3c_parallel
N         -6.21804       -1.18254        0.02270
C         -5.08954       -1.00071        0.00154
C         -3.67411       -0.79196        0.00907
C         -2.78425       -1.93684        0.01450
C         -1.42230       -1.97851        0.01435
C         -0.63257       -0.88338        0.03724
C         -0.93105        0.49671        0.03047
C          0.45803        0.79673        0.02420
C          0.78334       -0.57436        0.02868
C          1.98625       -1.20506       -0.00860
N          1.72452       -2.51343       -0.19569
H          2.44873       -3.21409       -0.03648
H          0.83713       -2.91337        0.10522
C          3.17589       -0.51172        0.01563
C          4.30733       -1.39163        0.04780
N          5.24033       -2.05007        0.06883
C          3.44650        0.92026        0.00065
N          2.57844        2.02314       -0.01637
C          1.23522        1.91739       -0.00546
H          0.86969        2.95522       -0.01962
N          4.30176        1.62281        0.00310
H          4.73268        2.54710       -0.00463
H          5.07465        0.95631       -0.00854
C         -2.09801        1.21340        0.01139
C         -2.14620        2.64318       -0.00192
N         -1.67225        3.68299        0.00083
C         -3.39962        0.57868        0.00444
H         -4.24486        1.26673       -0.00583
H         -0.95366       -2.95844       -0.00518
H         -3.29903       -2.89352        0.01442
