26
Coordinates from ORCA-job ./opt_b97-3c_parallel
N         -4.36730       -0.42467        0.13423
C         -3.02725       -0.34304        0.03901
C         -2.52046       -1.61717        0.03792
C         -1.17682       -1.85780        0.02665
C         -0.22803       -0.88069        0.01498
C         -0.29261        0.53724        0.00027
C         -1.30533        1.47064       -0.00691
N         -1.13130        2.56034       -0.02494
H         -0.13010        2.75225        0.00010
H         -1.60869        3.44859        0.10958
C         -2.66132        0.97908        0.01017
H         -3.44045        1.74059        0.00073
C          1.11535        0.56571       -0.00594
N          2.04789        1.59209       -0.01866
C          3.34640        1.11273       -0.01730
C          3.98894       -0.09390       -0.00672
C          3.25416       -1.24822        0.00422
N          2.16632       -1.47151        0.00993
C          1.22694       -0.87912        0.00877
H          3.95736       -2.09455        0.00144
H          5.07556       -0.13355        0.00083
H          3.89970        2.06354       -0.02589
H         -0.84195       -2.89216        0.02336
H         -3.18529       -2.47840        0.04509
H         -4.85035       -1.27779       -0.14006
H         -4.94817        0.36626       -0.13729
