31
Coordinates from ORCA-job ./opt_b97-3c_parallel
N          5.12919        1.09961       -0.26085
C          4.31463        0.33602       -0.01626
C          2.99655       -0.23286       -0.00183
C          3.10171       -1.62843       -0.00569
C          2.08549       -2.66744        0.00666
C          0.71575       -2.49160        0.01892
N          0.07910       -3.39450        0.03019
H         -0.64154       -3.67597        0.69092
H          0.69740       -4.19861       -0.07377
C          0.12837       -1.26433        0.02038
C          0.55027        0.02751        0.01940
C          1.83692        0.64187        0.01072
N          1.76953        1.74536        0.00850
H          2.76839        1.92146       -0.09320
H          1.32916        2.66009        0.09317
C         -0.80682        0.49140        0.01416
C         -1.22846       -0.79495        0.01057
C         -2.50316       -1.41848       -0.02464
C         -3.60168       -0.58645       -0.05422
N         -4.66358       -0.88541       -0.09832
H         -5.60238       -0.48850       -0.07062
H         -4.78535       -1.87024       -0.33341
N         -3.74595        0.75852       -0.04270
C         -2.88746        1.81034       -0.01148
C         -1.44144        1.76821        0.00346
C         -1.15107        3.16625        0.00240
N         -0.68435        4.15127        0.34423
H         -3.66973        2.58575       -0.01732
H         -2.56507       -2.50296       -0.03945
H          2.49612       -3.67507        0.00172
H          4.09881       -2.06529       -0.01986
