24
Coordinates from ORCA-job ./opt_b97-3c_parallel
N         -1.68802       -3.43878        0.00920
C         -1.70550       -2.29593       -0.01017
C         -1.78749       -0.87179       -0.02063
C         -0.61643       -0.01883       -0.03108
C         -0.43799        1.39173       -0.01804
N         -1.27031        2.47834        0.00552
C         -2.55746        2.01606        0.00573
N         -3.51542        1.03272       -0.00009
C         -3.12324       -0.30289       -0.00957
H         -4.08153       -0.84347       -0.00097
H         -3.12728        2.95759        0.01659
C          0.96560        1.21021       -0.01826
C          0.82417       -0.22114       -0.03979
C          1.74145       -1.24693       -0.06095
N          1.33656       -2.52136       -0.14421
H          1.97238       -3.28010        0.09386
H          0.40097       -2.79281        0.14989
C          3.04720       -0.96042       -0.02884
C          3.49858        0.32886        0.01490
N          3.34769        1.70305        0.03590
C          2.05063        2.05628        0.01091
H          1.69045        3.09601        0.02435
H          4.59649        0.39864        0.03842
H          3.77777       -1.76644       -0.05641
