33
Coordinates from ORCA-job ./opt_b97-3c_parallel
N         -0.80892       -4.10720       -0.16801
C         -1.02013       -2.98491       -0.10830
C         -1.31512       -1.56884       -0.04285
C         -0.21073       -0.70931        0.02349
C         -0.32708        0.73327        0.03885
C          1.12130        0.50653        0.02375
C          1.22965       -0.95533        0.06201
C          2.37646       -1.77759        0.13634
N          2.24075       -3.13266        0.21919
H          3.06151       -3.72057        0.12662
H          1.32745       -3.55004        0.07163
C          3.65698       -1.21897        0.15104
C          3.88477        0.20430        0.08870
N          3.14540        1.03418        0.01632
C          2.03785        1.14786       -0.04266
N          2.23335        2.45836       -0.39077
H          3.14852        2.88429       -0.28814
H          1.43527        3.08026       -0.46085
H          4.82432        0.73273       -0.01938
H          4.53931       -1.85128        0.21797
C         -1.28231        1.73921        0.07438
C         -0.84475        3.11573        0.13166
N         -0.51322        4.20872        0.17983
C         -2.64653        1.42284        0.06919
N         -3.55488        2.45077        0.11990
H         -3.22277        3.38634        0.33106
H         -4.52936        2.23728        0.30220
C         -3.21628        0.14146        0.00373
C         -2.66773       -1.15408       -0.05632
N         -3.63037       -2.13247       -0.12593
H         -3.34670       -3.08529       -0.33108
H         -4.59010       -1.86729       -0.31784
H         -4.30664        0.15622       -0.00464
