33
Coordinates from ORCA-job ./opt_b97-3c_parallel
N         -5.66089       -1.19561       -0.06736
C         -4.61354       -0.73920       -0.03946
C         -3.31858       -0.12425       -0.00734
C         -3.28864        1.32853        0.06285
N         -2.26947        2.22535        0.09694
C         -0.93042        2.08911        0.07123
N         -0.72315        3.17210        0.12815
H         -1.07191        4.11270        0.30805
H          0.29470        3.26408        0.10154
C         -0.38126        0.77975        0.00579
C         -0.90641       -0.47307       -0.02413
C          0.42639       -1.00748       -0.02899
C          0.95348        0.24596       -0.01312
C          2.27317        0.81273       -0.03630
C          2.39109        2.24145       -0.08242
N          2.42426        3.38277       -0.13015
C          3.41181       -0.00077       -0.05003
N          4.45917        0.36134       -0.08603
H          5.32758       -0.12979       -0.29705
H          4.66126        1.35460       -0.18667
C          3.43522       -1.46177       -0.01449
C          2.38856       -2.34751        0.02299
N          2.76603       -3.63506        0.10620
H          2.13245       -4.34111        0.47702
H          3.71242       -3.87830        0.39520
C          1.03048       -2.28789       -0.02143
H          0.40442       -3.17686       -0.02187
H          4.42608       -1.92266       -0.01860
C         -2.23658       -0.99948       -0.04022
N         -2.15710       -2.10231       -0.09622
H         -3.10346       -2.48288       -0.12007
H         -1.54958       -2.84678       -0.43723
H         -4.25503        1.85572        0.09393
