29
Coordinates from ORCA-job ./opt_b97-3c_parallel
N          4.18620        2.88019       -0.01502
C          3.33779        2.11554        0.01306
C          2.58705        0.88873        0.01555
C          1.21432        1.35019        0.02318
C          0.21860        0.42298        0.02682
C          0.10924       -0.92811        0.02617
C          1.05056       -1.99264        0.01930
N          0.67854       -3.03111        0.01722
H          1.24522       -3.87742        0.04999
H         -0.29429       -3.33087       -0.00391
C          2.41066       -1.73511        0.01126
C          3.07009       -0.42637        0.00944
N          4.16492       -0.59319        0.00053
H          4.79365        0.20921        0.01198
H          4.75292       -1.41881       -0.10009
H          3.07288       -2.60401        0.00488
C         -1.32198       -0.85070        0.02562
N         -2.27320       -1.78141        0.01907
C         -3.45157       -1.07170        0.00945
N         -4.19997        0.09373        0.00053
C         -3.56914        1.34338        0.00136
N         -4.46492        1.98886       -0.01313
H         -5.47499        1.84671       -0.01103
H         -4.32512        2.99461       -0.10670
C         -2.13821        1.60187        0.01562
C         -1.21087        0.50910        0.02565
H         -1.76714        2.62219        0.01427
H         -4.02082       -2.01457        0.00849
H          0.96221        2.40929        0.02492
