29
Coordinates from ORCA-job ./opt_b97-3c_parallel
N         -5.35147       -1.74946        0.00331
C         -4.28047       -1.35433       -0.00203
C         -2.94689       -0.82414       -0.00058
C         -1.86484       -1.77171        0.00080
N         -0.77638       -1.97381        0.00175
C         -0.05880       -1.13980        0.00201
C         -0.18945        0.30599        0.00146
C         -1.30992        1.12427        0.00034
C         -0.96832        2.51959        0.00023
N         -0.47982        3.55263       -0.00310
C         -2.65733        0.54646       -0.00064
N         -3.45870        1.31372       -0.00178
H         -3.55028        2.32949       -0.00269
H         -4.41235        0.94975       -0.00128
C          1.22366        0.49437        0.00250
C          1.36920       -0.91303        0.00291
C          2.46598       -1.75422        0.00392
N          2.48825       -2.86261        0.00419
H          3.14841       -3.64481        0.00389
H          1.56505       -3.30643        0.00482
N          3.75978       -1.37540        0.00474
C          3.91576        0.00435        0.00449
N          3.51959        1.33751        0.00393
C          2.14952        1.60827        0.00273
N          2.40906        2.68518        0.00295
H          1.47949        3.11700        0.00257
H          3.04518        3.48670        0.00200
H          5.01712        0.06338        0.00531
H         -2.16895       -2.83075        0.00118
