26
Coordinates from ORCA-job ./opt_b97-3c_parallel
N         -6.15862       -0.41281        0.00370
C         -5.01834       -0.33444        0.00236
C         -3.59076       -0.27862        0.00092
C         -3.17882        1.04951       -0.00133
N         -2.00961        1.72381       -0.00268
C         -0.88519        0.93625       -0.00159
C         -0.64305       -0.46197       -0.00010
C         -1.41861       -1.56875        0.00047
C         -2.77938       -1.47899        0.00204
H         -3.34366       -2.40668        0.00387
H         -0.95357       -2.55094       -0.00146
C          0.71077       -0.19937       -0.00029
C          0.52477        1.14529       -0.00176
C          1.35112        2.30614       -0.00305
N          2.73854        2.21677       -0.00273
C          3.40085        1.03607       -0.00137
C          3.10548       -0.32016        0.00002
C          4.46581       -0.77147        0.00074
N          5.53631       -1.17353        0.00153
C          1.89740       -0.99080        0.00050
N          1.81384       -2.09227        0.00165
H          1.10222       -2.81982       -0.00430
H          2.71836       -2.56124        0.00584
H          4.14984        1.84298       -0.00216
H          0.73498        3.21787       -0.00424
H         -3.68900        2.02474       -0.00236
