32
Coordinates from ORCA-job ./opt_b97-3c_parallel
N          4.17645        3.31014       -0.02395
C          3.47498        2.40898       -0.02552
C          2.55520        1.30499       -0.02121
C          1.20007        1.62606       -0.02990
N          0.69830        2.61782       -0.04501
H          0.06962        3.28830       -0.48233
H          1.55113        3.14430        0.14381
C          0.21579        0.67064       -0.03239
C          0.18006       -0.68922       -0.03961
C         -1.25960       -0.68908       -0.03756
N         -2.15914       -1.67485       -0.03847
C         -3.39234       -1.06248       -0.00492
N         -4.04696       -1.95422       -0.03110
H         -5.06027       -2.06996       -0.06378
H         -3.67263       -2.90289       -0.09363
N         -4.19750        0.06776        0.04312
C         -3.64571        1.35741        0.07461
N         -4.50617        2.05191        0.13501
H         -5.52749        2.02168        0.15687
H         -4.27423        3.03640        0.28286
C         -2.23273        1.70202        0.03368
C         -1.22969        0.67227       -0.01965
H         -1.93532        2.74603        0.06117
C          1.19233       -1.70206       -0.02256
N          0.66196       -2.67804       -0.02307
H          1.49450       -3.26655        0.02573
H         -0.12105       -3.32771       -0.04689
C          2.53983       -1.34381        0.00573
C          3.43879       -2.46397        0.04478
N          4.12331       -3.37587        0.08558
C          3.15001       -0.02317        0.00449
H          4.23814       -0.02891        0.02526
