29
Coordinates from ORCA-job ./opt_b97-3c_parallel
N         -1.12252       -3.96970       -0.31692
C         -1.46563       -2.96971        0.11300
C         -1.47056       -1.54040        0.05618
C         -0.32880       -0.78756        0.02321
C          1.07559       -1.05996        0.01995
C          1.35407        0.34272       -0.01594
C          2.53871        1.06560       -0.03259
N          3.05344        2.04755       -0.05242
H          2.43171        2.84863        0.06596
H          3.98798        2.45900       -0.11386
N          3.79703        0.56691       -0.02343
C          3.87661       -0.82289        0.00301
N          3.12560       -1.88059        0.02402
C          1.86764       -2.18467        0.03972
H          1.76388       -3.28109        0.06195
H          4.83234       -1.37171        0.01210
C         -0.06524        0.60517       -0.01733
C         -0.88335        1.70549       -0.04303
C         -0.35724        3.03479       -0.08861
N          0.50064        3.74566        0.16489
C         -2.32405        1.53817       -0.02725
N         -3.22528        2.18550       -0.03645
H         -3.04415        3.19053       -0.04063
H         -4.24424        2.10717       -0.01630
N         -3.20114        0.44489        0.00637
C         -2.75474       -0.88390        0.04081
N         -3.84533       -1.05857        0.05057
H         -3.63278       -2.05432       -0.01307
H         -4.86315       -0.99851        0.08801
