34
Coordinates from ORCA-job ./opt_b97-3c_parallel
N         -5.52292       -1.71886        0.01401
C         -4.61687       -1.02263        0.00778
C         -3.44252       -0.17497        0.00238
C         -2.13933       -0.82690       -0.00019
N         -1.97687       -1.91770        0.00188
H         -1.33627       -2.70934       -0.00161
H         -2.91181       -2.32336        0.00635
C         -0.94491       -0.03341       -0.00360
C         -0.68431        1.29986       -0.00417
C          0.67402        1.12049       -0.00356
N          1.76399        1.97172        0.00012
C          2.98629        1.40043        0.00447
N          3.11544        2.51061        0.00586
H          4.12682        2.36755       -0.00075
H          2.99746        3.52458        0.02573
C          3.43669        0.07606        0.00562
C          4.85685        0.34881        0.01261
N          5.96975        0.60749        0.01932
C          2.75469       -1.14810        0.00199
N          3.48234       -1.99093        0.00422
H          4.49459       -2.11576        0.01021
H          3.09101       -2.93497        0.00493
C          1.38183       -1.40408       -0.00241
C          0.88199       -2.75180       -0.00616
N          0.53091       -3.83975       -0.00971
C          0.48151       -0.28509       -0.00365
C         -1.50192        2.45965       -0.00393
C         -2.87522        2.35537       -0.00303
C         -3.69054        1.21174        0.00021
N         -4.70614        1.67006        0.00135
H         -5.18567        2.56891        0.00191
H         -5.44153        0.96414        0.00536
H         -3.32981        3.35346       -0.00436
H         -1.03166        3.43790       -0.00525
