29
Coordinates from ORCA-job ./opt_b97-3c_parallel
N         -1.04297       -3.77686        0.05501
C         -1.29332       -2.66273        0.03348
C         -1.65628       -1.28289        0.01000
C         -0.68582       -0.28933       -0.01167
C         -0.73689        1.09314       -0.02915
C          0.69049        1.14555       -0.02637
C          0.70235       -0.27099       -0.01687
C          1.81199       -1.18924       -0.01244
N          1.77767       -2.29124        0.00152
H          2.54519       -2.96044       -0.06136
H          0.93191       -2.86080        0.00600
C          3.11097       -0.74401       -0.04949
C          3.42829        0.58648        0.01818
N          4.45736        0.99033        0.08714
H          5.12765        0.23223        0.21397
H          5.02486        1.83872        0.04556
N          2.99091        1.85798        0.03690
C          1.68138        2.19034       -0.00515
H          1.45019        3.26630        0.00557
H          3.92413       -1.45083       -0.24338
C         -1.77320        1.97336       -0.03447
C         -3.00728        1.39829       -0.02541
N         -3.95649        1.96896       -0.05682
H         -3.92408        2.98008       -0.19154
H         -4.95253        1.74743       -0.00072
N         -3.65851        0.22758       -0.00606
C         -3.07857       -0.99461        0.01591
H         -3.84094       -1.78951        0.03471
H         -1.62015        3.02934        0.18666
