29
Coordinates from ORCA-job ./opt_b97-3c_parallel
N         -5.07712       -1.82455        0.00052
C         -4.02500       -1.37717       -0.00122
C         -2.72115       -0.77448       -0.00222
C         -1.85575       -1.85615       -0.00434
N         -0.52716       -2.05095       -0.00594
C          0.23870       -0.91264       -0.00581
C          0.00316        0.49618       -0.00439
C         -1.16685        1.21926       -0.00270
C         -0.84983        2.62127       -0.00127
N         -0.97158        3.75816        0.00211
C         -2.43743        0.65573       -0.00161
N         -3.32341        1.32408        0.00015
H         -4.30173        1.04091        0.00188
H         -3.30846        2.34270        0.00257
C          1.37385        0.67550       -0.00520
C          1.64344       -0.65232       -0.00658
C          2.82053       -1.47169       -0.00851
N          2.74189       -2.57198       -0.00972
H          3.38267       -3.36289       -0.00856
H          1.79667       -2.95308       -0.00715
C          4.10069       -0.93308       -0.00940
C          4.41228        0.48220       -0.00808
C          3.61680        1.59677       -0.00548
C          2.26965        1.77784       -0.00489
H          1.87017        2.78581       -0.00357
H          4.17665        2.52930       -0.00310
H          5.47905        0.68348       -0.00907
H          4.95848       -1.60224       -0.01116
H         -1.92059       -2.95516       -0.00520
