29
Coordinates from ORCA-job ./opt_b97-3c_parallel
N         -1.06930       -3.96469        0.03598
C         -1.32783       -2.85143        0.01898
C         -1.63651       -1.44341        0.00124
C         -0.56993       -0.54183       -0.01319
C         -0.75915        0.88906       -0.02868
C         -1.76164        1.84360       -0.03162
C         -3.10357        1.47425       -0.02298
N         -4.01511        2.49242       -0.02764
H         -4.98980        2.27691        0.15162
H         -3.69458        3.43833        0.14761
C         -3.62078        0.16925       -0.01076
C         -2.99218       -1.08643        0.00034
H         -3.68859       -1.92309        0.01062
H         -4.70748        0.10769       -0.00833
H         -1.49604        2.89839       -0.04217
C          0.68856        0.70951       -0.02907
C          0.87699       -0.71680       -0.01532
C          2.04506       -1.47599       -0.01197
C          3.32629       -0.92788       -0.01850
C          3.73231        0.41797       -0.02882
N          5.08660        0.60563       -0.02983
H          5.68911       -0.18899        0.15455
H          5.45228        1.53415        0.14910
C          2.97028        1.59986       -0.03918
C          1.58625        1.77044       -0.03979
H          1.20281        2.78779       -0.05007
H          3.53548        2.53020       -0.04857
H          4.12567       -1.66669       -0.01445
H          1.95809       -2.55982       -0.00311
