30
Coordinates from ORCA-job ./opt_b97-3c_parallel
N         -5.38077       -1.34696       -0.02716
C         -4.39354       -0.77239       -0.02358
C         -3.12945       -0.09354       -0.01964
C         -1.88915       -0.84855       -0.00675
N         -1.70905       -1.94024        0.00630
H         -2.69596       -2.17384       -0.09763
H         -1.30806       -2.67222        0.58816
C         -0.66779       -0.11207       -0.00714
C         -0.37505        1.20993       -0.00229
C         -1.07610        2.37246       -0.00955
C         -2.45139        2.41558       -0.02878
C         -3.36903        1.28751       -0.03420
H         -4.40712        1.61595       -0.05006
H         -2.91705        3.39696       -0.04192
H         -0.53289        3.31253       -0.00850
C          1.01293        0.87416       -0.00048
C          0.73141       -0.44504       -0.01075
C          1.45512       -1.59425       -0.03709
C          2.83623       -1.55988       -0.05710
N          3.50639       -2.43951       -0.09462
H          4.47381       -2.76432       -0.10059
H          2.94369       -3.28081       -0.22903
N          3.71689       -0.45892       -0.03004
C          3.46726        0.88541        0.00686
N          4.45938        1.37504        0.02462
H          4.37221        2.39172       -0.00623
H          5.45733        1.19745        0.14068
C          2.21785        1.61936        0.00820
H          2.19316        2.70558        0.02564
H          0.93317       -2.54746       -0.05554
