30
Coordinates from ORCA-job ./opt_b97-3c_parallel
N         -5.76400       -2.01768       -0.00775
C         -4.77856       -1.44139       -0.00435
C         -3.56742       -0.68440       -0.00138
C         -2.27958       -1.33019        0.00147
C         -1.12049       -0.50156        0.00394
C         -0.87991        0.83075        0.00467
C          0.53773        0.57623        0.00628
N          1.57193        1.43046        0.00592
C          2.87141        0.90075        0.00986
N          3.15644        1.97660        0.00579
H          4.11346        1.61384       -0.03483
H          3.28053        2.98982        0.02025
C          3.29946       -0.43355        0.01764
C          4.73959       -0.47316        0.02632
N          5.70174        0.13567       -0.07692
C          2.47531       -1.63677        0.01615
N          2.93713       -2.64349        0.02104
H          2.55576       -3.59016        0.01170
H          3.95077       -2.76140        0.01555
C          1.11724       -1.83117        0.00617
C          0.28326       -0.76889        0.00607
H          0.66551       -2.82847        0.00451
C         -1.70734        1.99980        0.00557
N         -1.67392        3.10619        0.00805
H         -0.87201        3.73590        0.02467
H         -2.48616        3.72701        0.00939
N         -3.04336        1.81136        0.00249
C         -3.79730        0.68454       -0.00102
H         -4.81156        1.11698       -0.00266
H         -2.19371       -2.41362        0.00073
