29
Coordinates from ORCA-job ./opt_b97-3c_parallel
N          1.20755        4.10757       -0.00776
C          0.50075        3.21065       -0.00385
C         -0.41613        2.11298       -0.00036
C          0.01845        0.75776        0.00429
C         -0.67729       -0.48013        0.00795
C          0.58490       -1.16760        0.00777
C          1.27570        0.07033        0.00382
C          2.68598        0.34105       -0.00246
N          3.12971        1.35043       -0.00747
H          4.12264        1.57592       -0.00445
H          2.63021        2.23813       -0.00160
C          3.56254       -0.72035       -0.00314
C          3.16029       -2.03424       -0.00137
N          2.19225       -2.58792        0.00391
C          1.07986       -2.51784        0.00675
H          0.36946       -3.35747        0.00839
H          4.03634       -2.69947       -0.00859
H          4.63613       -0.52873       -0.00524
C         -2.00850       -0.79099        0.00756
C         -2.17011       -2.21870        0.01055
N         -2.64220       -3.25935       -0.01964
C         -2.98142        0.19630        0.00383
N         -4.04847       -0.10360        0.00161
H         -4.25443       -1.10034       -0.05539
H         -4.94247        0.38130       -0.04282
C         -2.92011        1.59232        0.00146
C         -1.75596        2.46303       -0.00068
H         -1.99646        3.52285       -0.00338
H         -3.85167        2.16061        0.00033
