31
Coordinates from ORCA-job ./opt_b97-3c_parallel
N          5.35410        1.91404        0.08053
C          4.38874        1.30264        0.04453
C          3.15302        0.56321        0.01502
C          1.98056        1.39908        0.00225
C          0.69193        0.81433       -0.02077
C          0.17644       -0.43949       -0.03428
C          0.78002       -1.73251       -0.04110
N          0.24997       -2.69968       -0.06151
H          0.69451       -3.61573       -0.06941
H         -0.75328       -2.87080       -0.03251
C          2.16688       -1.84592       -0.02584
C          3.15570       -0.84485        0.00035
N          4.12218       -1.39776        0.00982
H          4.95251       -0.80785        0.02933
H          4.45244       -2.35910        0.06622
H          2.51597       -2.88837       -0.03479
C         -1.16284        0.11878       -0.04292
C         -0.61521        1.37193       -0.03180
N         -1.13284        2.64176       -0.01738
C         -2.50365        2.53463       -0.03035
C         -3.65236        1.79912       -0.05366
C         -3.67859        0.45917       -0.06255
N         -4.87520       -0.16054       -0.09442
H         -5.71564        0.32797        0.20946
H         -4.95517       -1.13554        0.19104
C         -2.53741       -0.33489       -0.04797
C         -2.62200       -1.76763       -0.01870
N         -2.97944       -2.83237        0.19851
H         -4.59477        2.34393       -0.07046
H         -2.66527        3.62300       -0.01889
H          2.07350        2.48128        0.01336
