35
Coordinates from ORCA-job ./opt_b97-3c_parallel
N         -1.12878       -4.14316        0.04217
C         -1.36562       -3.02498        0.00963
C         -1.70757       -1.62031       -0.01998
C         -0.54165       -0.83198       -0.01738
C         -0.45076        0.65642        0.02402
C          0.98279        0.57486        0.03528
C          0.89186       -0.92414       -0.01309
C          2.01480       -1.77944       -0.06450
N          1.84845       -3.12966       -0.17025
H          2.65038       -3.73715       -0.04482
H          0.92261       -3.52530       -0.04602
C          3.32854       -1.29985       -0.01965
C          3.67394        0.09525        0.09750
N          4.96244        0.52781        0.22325
H          5.16625        1.51812        0.15166
H          5.72794       -0.12672        0.10677
N          3.00161        0.98023        0.07980
C          1.91165        1.18984        0.00033
N          2.16199        2.50518       -0.28295
H          1.38955        3.16112       -0.32769
H          3.09256        2.88448       -0.14610
H          4.16791       -1.99035       -0.07003
C         -1.51053        1.58356        0.04538
C         -0.99452        2.93238        0.12710
N         -0.61296        4.00794        0.19804
C         -2.88953        1.33669       -0.00584
N         -3.73520        2.41805       -0.01098
H         -4.73147        2.27091        0.10856
H         -3.35714        3.34199        0.17206
C         -3.54199        0.10288       -0.05319
C         -3.04622       -1.20291       -0.04467
N         -4.01878       -2.17121       -0.06988
H         -3.75402       -3.13768        0.09137
H         -4.98570       -1.90576        0.08211
H         -4.62938        0.17031       -0.09083
