29
Coordinates from ORCA-job ./opt_b97-3c_parallel
N          4.22929        2.53567       -0.00368
C          3.31260        1.85203       -0.00330
C          2.52201        0.64280       -0.00196
C          1.16080        1.15282       -0.00040
C          0.08600        0.21124        0.00096
C         -0.03586       -1.13128        0.00398
C          0.91379       -2.19731        0.00483
N          0.55943       -3.24259        0.00367
H         -0.43373       -3.47248        0.00256
H          1.06987       -4.12247        0.00240
C          2.27566       -1.93481        0.00126
C          2.92596       -0.69546       -0.00102
N          4.02864       -0.86016       -0.00240
H          4.66058       -0.05936       -0.00310
H          4.62459       -1.68707       -0.00233
H          2.90481       -2.82949        0.00077
C         -1.49252       -1.08114        0.00407
N         -2.34050       -2.06091        0.00643
C         -3.46899       -1.41297        0.00590
C         -4.22173       -0.25380        0.00535
C         -3.66106        1.01871        0.00411
C         -2.30606        1.34147        0.00141
C         -1.95255        2.72318        0.00028
N         -1.69524        3.83969       -0.00109
C         -1.33421        0.28515        0.00121
H         -4.36949        1.84285        0.00315
H         -5.30661       -0.33371        0.00550
H         -4.22644       -2.21414        0.00634
H          0.93714        2.21614       -0.00185
