33
Coordinates from ORCA-job ./opt_b97-3c_parallel
N          4.60406        2.90958        0.02561
C          3.79757        2.09905        0.01549
C          2.74560        1.09932        0.00955
C          1.48660        1.70541        0.00071
C          0.31070        0.98994       -0.00577
C         -0.01717       -0.33580       -0.00557
C          0.74462       -1.48272        0.00314
N          0.00348       -2.31133        0.00130
H         -0.90109       -2.77414        0.04666
H          0.67761       -3.07411       -0.03753
C          2.14300       -1.45089        0.01312
C          2.67949       -2.80053        0.02351
N          3.06415       -3.86352       -0.14558
C          3.02784       -0.35128        0.01575
N          4.12357       -0.55746        0.02322
H          4.89946        0.10304        0.02402
H          4.53810       -1.48768       -0.00961
C         -1.42604        0.00828       -0.01417
C         -1.09150        1.32505       -0.01358
N         -1.82389        2.48580       -0.01647
C         -3.15038        2.14435       -0.01751
N         -4.21720        1.26435       -0.01752
C         -3.96673       -0.06943       -0.01833
N         -5.07759       -0.07020       -0.01813
H         -6.04333        0.25848       -0.01164
H         -5.13514       -1.09005        0.01828
C         -2.66298       -0.73732       -0.01948
C         -3.01827       -2.12477       -0.02471
N         -3.66814       -3.05444        0.11312
H         -3.31128        3.23432       -0.01854
N          1.17203        2.77251       -0.00373
H          0.38245        3.41431       -0.04349
H          2.01000        3.35383        0.00697
