25
Coordinates from ORCA-job ./opt_b97-3c_parallel
N          4.95631        1.12017        0.00324
C          3.91271        0.65339        0.00180
C          2.58895        0.10660        0.00022
C          1.38636        0.91121       -0.00019
N          1.32593        2.01468        0.00043
H          0.66820        2.79107        0.00130
H          2.26105        2.41813        0.00156
C          0.14191        0.20467       -0.00132
C         -0.23551       -1.10031       -0.00240
C          0.46990       -2.33833       -0.00333
N          1.81208       -2.31425       -0.00204
C          2.67274       -1.27656       -0.00051
H          3.54410       -1.94912       -0.00000
H         -0.13533       -3.25737       -0.00464
C         -1.55983       -0.76738       -0.00354
N         -2.74296       -1.46619       -0.00533
C         -3.87043       -0.72526       -0.00535
C         -4.22623        0.61735       -0.00443
C         -3.33102        1.75418       -0.00312
C         -1.96775        1.75572       -0.00225
C         -1.23887        0.61725       -0.00210
H         -1.44865        2.71049       -0.00183
H         -3.83544        2.71513       -0.00273
H         -5.28214        0.87039       -0.00509
H         -4.71880       -1.42645       -0.00648
