26
Coordinates from ORCA-job ./opt_b97-3c_parallel
N         -6.06134       -0.67120        0.00827
C         -4.92557       -0.54041       -0.00332
C         -3.50373       -0.40995        0.00158
C         -2.85982        0.87383        0.00796
N         -1.83905        1.29616        0.01397
C         -0.86034        0.78023        0.01223
C         -0.60187       -0.64352        0.00742
N         -1.39962       -1.77674        0.00212
C         -2.73344       -1.56099        0.00018
H         -3.17853       -2.56739       -0.00441
C          0.79255       -0.46270        0.00736
C          0.58937        0.92234        0.01116
C          1.47805        1.94028        0.00897
N          0.95947        3.16586       -0.16913
H         -0.02135        3.33883        0.04651
H          1.49224        3.99555        0.08369
C          2.83700        1.82673        0.01252
C          3.64426        0.62422        0.00758
C          3.22457       -0.70536        0.00367
C          4.25280       -1.70040        0.00005
N          5.19769       -2.34302        0.01462
C          1.89270       -1.27249        0.00370
H          1.76633       -2.35163        0.00138
H          4.71244        0.82459        0.00684
H          3.42719        2.73898        0.01627
H         -3.54662        1.73396        0.00725
