30
Coordinates from ORCA-job ./opt_b97-3c_parallel
N          3.91034        2.35800        0.04192
C          3.12149        1.27159        0.03856
C          1.79704        1.65571        0.04481
C          0.71897        0.71945        0.00137
C          0.67487       -0.64314       -0.02131
N          1.53693       -1.66574        0.00601
C          2.80966       -1.11195        0.03672
N          3.22576       -2.13816        0.08936
H          3.01019       -3.13333        0.01757
H          4.22257       -2.09914        0.30522
C          3.59867        0.01579        0.03856
H          4.68235       -0.10788        0.03442
C         -0.76412       -0.56500       -0.02691
C         -0.70821        0.78833        0.00018
C         -1.66700        1.83345        0.03896
N         -3.02621        1.53897        0.05274
C         -3.64642        0.28025        0.02919
N         -4.68005        0.67025        0.05694
H         -5.19991        1.54848        0.01981
H         -5.39140       -0.05458        0.16368
C         -3.18844       -1.03935       -0.01407
C         -1.82086       -1.51905       -0.03843
N         -1.59734       -2.59883       -0.06988
H         -0.73786       -3.14604       -0.06205
H         -2.34705       -3.27595       -0.21649
H         -3.95090       -1.81521       -0.02628
H         -1.56885        2.93028        0.07011
H          1.51256        2.70533        0.07708
H          4.90323        2.29079       -0.18321
H          3.57362        3.25775       -0.30040
