26
Coordinates from ORCA-job ./opt_b97-3c_parallel
N         -1.77591       -3.51647        0.00440
C         -1.86255       -2.37679        0.00371
C         -2.01692       -0.95554        0.00273
C         -0.91015       -0.12230        0.00222
C         -0.72844        1.24456        0.00123
N         -1.53228        2.36212        0.00045
C         -2.85858        2.00663        0.00074
C         -3.68500        0.92706        0.00157
C         -3.35070       -0.39804        0.00227
H         -4.15754       -1.12525        0.00262
H         -4.74973        1.14763        0.00190
H         -3.31525        3.00781        0.00001
C          0.67391        1.05535        0.00139
C          0.46289       -0.33178        0.00237
C          1.29172       -1.39620        0.00308
C          2.65096       -1.29024        0.00290
C          3.50009       -0.10792        0.00236
N          4.59026       -0.28112        0.00260
H          5.09433       -1.16556        0.00354
H          5.29143        0.45703        0.00227
C          3.14566        1.30952        0.00155
C          1.82300        1.88835        0.00096
H          1.70423        2.96663        0.00029
H          3.95900        2.03244        0.00120
H          3.19319       -2.23323        0.00341
H          0.86639       -2.39502        0.00354
