27
Coordinates from ORCA-job ./opt_b97-3c_parallel
N         -5.78352       -0.46501       -0.00795
C         -4.69649       -0.11300       -0.00658
C         -3.32691        0.28846       -0.00463
C         -2.26025       -0.67974       -0.00262
C         -0.92612       -0.18395       -0.00099
C         -0.35741        1.05172       -0.00085
C         -0.84406        2.38866       -0.00221
N         -2.17491        2.56318       -0.00405
C         -3.18914        1.66958       -0.00503
H         -3.96360        2.45225       -0.00644
H         -0.40935        3.40028       -0.00229
C          0.94406        0.46037        0.00058
C          0.37795       -0.77677        0.00060
C          0.89373       -2.10026        0.00076
C          0.04961       -3.25263       -0.00052
N         -0.59825       -4.19250       -0.00278
C          2.26715       -2.21776        0.00173
N          3.28691       -1.32617        0.00304
C          3.37493        0.02937        0.00319
N          4.47843        0.10102        0.00440
H          4.63016        1.11251        0.00711
H          5.40830       -0.31743        0.00719
C          2.27464        0.97366        0.00132
C          2.43380        2.39531        0.00049
N          3.30005        3.14047        0.00781
H          2.66877       -3.24412        0.00168
H         -2.46946       -1.74479       -0.00242
