31
Coordinates from ORCA-job ./opt_b97-3c_parallel
N         -5.47272       -0.65751       -0.02219
C         -4.33529       -0.54619       -0.00758
C         -2.89876       -0.36713       -0.00332
C         -2.26032       -1.62227        0.00137
N         -2.63854       -2.66999        0.00220
H         -2.46660       -3.67305        0.04485
H         -3.65193       -2.56418       -0.03008
C         -0.83694       -1.94127        0.00546
C          0.11368       -0.96176        0.00723
C          0.04215        0.45899        0.00460
C         -0.99468        1.35795       -0.00021
C         -0.42541        2.68030       -0.00142
N         -0.16575        3.79260       -0.04149
C         -2.33557        0.98833       -0.00453
N         -3.02883        1.85769       -0.01054
H         -2.85053        2.86095       -0.01050
H         -4.03950        1.74188       -0.07120
C          1.48222        0.47043        0.00560
C          1.48597       -0.89186        0.00693
C          2.51978       -1.89788       -0.00345
N          3.83678       -1.57535       -0.02730
C          4.16591       -0.22649       -0.01296
N          5.22586       -0.54112       -0.06321
H          5.85462       -1.34379       -0.03104
H          5.82806        0.27052       -0.19635
C          3.82284        1.09793        0.02148
C          2.51200        1.46737        0.00445
H          2.23707        2.51502        0.00155
H          4.57967        1.86701        0.17024
H          2.27165       -2.97030       -0.00870
H         -0.46227       -2.97028        0.00742
