25
Coordinates from ORCA-job ./opt_b97-3c_parallel
N         -1.01772       -4.18327        0.00555
C         -1.20790       -3.05626        0.00231
C         -1.40049       -1.64131        0.00007
C         -0.37455       -0.72253       -0.00074
C         -0.41712        0.71001       -0.00048
C          1.00789        0.69561       -0.00011
C          0.99911       -0.66136       -0.00062
C          2.03975       -1.64326       -0.00119
C          3.38354       -1.30390       -0.00115
C          3.93005        0.04070       -0.00000
C          3.34076        1.27791        0.00174
C          2.03848        1.66402        0.00064
H          1.77564        2.71649        0.00096
H          4.04587        2.10586        0.00413
H          5.01519        0.05657       -0.00036
H          4.10590       -2.11409       -0.00220
H          1.73571       -2.68538       -0.00223
C         -1.44187        1.62691       -0.00007
C         -1.25519        3.04296        0.00138
N         -1.06923        4.17057        0.00404
C         -2.74887        1.01569       -0.00084
N         -3.15491       -0.02107       -0.00126
C         -2.71448       -1.04370       -0.00021
H         -3.52484       -1.78883        0.00145
H         -3.55310        1.76756       -0.00197
