31
Coordinates from ORCA-job ./opt_b97-3c_parallel
N         -1.00652       -3.76084        0.07626
C         -1.40235       -2.69055        0.05229
C         -1.82288       -1.32721        0.02599
C         -0.81981       -0.37093        0.03068
C         -0.83278        1.00962        0.04748
C          0.59811        1.00832        0.04700
C          0.56841       -0.40961        0.02391
C          1.61423       -1.41460       -0.01181
N          1.87163       -2.49201       -0.04316
H          2.60912       -3.19494       -0.12627
H          1.01532       -3.04538        0.04256
N          2.96667       -1.04602       -0.05588
C          3.32678        0.30017       -0.01906
N          4.40220        0.04259       -0.11783
H          4.93141        0.90996       -0.23028
H          5.12028       -0.68479       -0.13113
C          2.95893        1.61774        0.06494
C          1.64361        1.98796        0.07288
N          1.31872        3.04051        0.11726
H          0.46653        3.49415        0.44322
H          2.03348        3.76901        0.11999
H          3.72236        2.39053        0.18211
C         -1.84820        1.91526        0.06588
C         -3.10006        1.38475       -0.04189
N         -4.02873        1.97822       -0.15560
H         -5.03458        1.81944       -0.06247
H         -3.94970        2.96083       -0.42250
N         -3.78045        0.22896       -0.06894
C         -3.24032       -1.01134       -0.00671
H         -4.04131       -1.76729       -0.02003
H         -1.65755        2.98452       -0.01252
