29
Coordinates from ORCA-job ./opt_b97-3c_parallel
N         -4.01658       -3.33248        0.00957
C         -3.26556       -2.47132       -0.00397
C         -2.33903       -1.36367       -0.00159
C         -0.96931       -1.81298        0.00061
C          0.09883       -0.88312       -0.00051
C          0.23614        0.46644       -0.00287
C         -0.70554        1.55084       -0.00414
N         -0.01674        2.42760       -0.00491
H          0.87520        2.91731       -0.00383
H         -0.72738        3.15927       -0.00384
C         -2.06977        1.22937       -0.00336
C         -2.72021        2.52913       -0.00124
N         -3.24889        3.54256       -0.02030
C         -2.74772       -0.01057       -0.00280
N         -3.85543        0.12213       -0.00315
H         -4.39277        0.98844       -0.00104
H         -4.54001       -0.63337       -0.00131
C          1.68124        0.31697       -0.00278
N          2.67847        1.21939       -0.00477
C          3.89149        0.55178       -0.00448
N          4.71319        1.28820       -0.00609
H          5.71673        1.10747       -0.00704
H          4.60903        2.30224       -0.00704
N          4.56318       -0.65834       -0.00253
C          3.69198       -1.73369       -0.00078
N          2.36746       -2.13108        0.00085
C          1.51268       -1.04573       -0.00041
H          4.26310       -2.67563       -0.00001
H         -0.74165       -2.87576        0.00222
