30
Coordinates from ORCA-job ./opt_b97-3c_parallel
N         -1.26819       -4.13428       -0.00458
C         -1.61713       -3.04670        0.00227
C         -1.95368       -1.66055        0.01265
C         -0.92813       -0.67719        0.05526
C         -0.94771        0.73298        0.06095
C          0.48799        0.73983        0.07333
C          0.50768       -0.69364        0.06651
C          1.51036       -1.64602        0.05542
N          1.59736       -2.75354        0.05936
H          0.67650       -3.20549        0.06246
H          2.23873       -3.54804        0.13716
N          2.83592       -1.38100        0.01162
C          3.14298       -0.01945        0.00166
N          4.24951       -0.01327       -0.07451
H          4.87502        0.79042       -0.16856
H          4.87230       -0.81908       -0.16877
N          2.85735        1.34550        0.02030
C          1.51847        1.75378        0.07199
N          1.69747        2.84711        0.08205
H          0.75104        3.24190        0.08070
H          2.29213        3.67620        0.16123
C         -1.97114        1.63661        0.03148
C         -1.79686        3.05716        0.03397
N         -1.08722        3.94849       -0.04902
C         -3.30158        1.26543       -0.01317
C         -3.88909        0.00640       -0.03868
C         -3.29400       -1.32017       -0.02746
H         -4.01600       -2.13350       -0.05932
H         -4.97519       -0.00068       -0.07746
H         -4.02845        2.07654       -0.03652
