29
Coordinates from ORCA-job ./opt_b97-3c_parallel
N         -5.36031       -1.21080        0.00166
C         -4.33476       -0.70774       -0.00872
C         -3.02917       -0.12114       -0.01819
C         -3.15167        1.26135       -0.02217
N         -2.37104        2.36736       -0.02554
C         -0.98347        2.33651       -0.02609
C         -0.25426        1.11389       -0.02779
C         -0.62347       -0.19303       -0.02819
C          0.77095       -0.57718       -0.02929
N          1.46237       -1.66828       -0.02792
C          2.73170       -1.42399       -0.01741
N          2.93722       -2.51330       -0.03199
H          3.91192       -2.73232       -0.23445
H          2.46646       -3.41468        0.05274
C          3.77391       -0.51859        0.00043
C          3.53607        0.91498        0.00728
N          4.44113        1.54611        0.02609
H          4.34175        2.55811        0.10597
H          5.44425        1.36392        0.04659
C          2.30331        1.55780       -0.00789
C          1.07608        0.81693       -0.02476
H          2.23799        2.64414       -0.00248
H          4.81067       -0.85428        0.00894
C         -1.80443       -0.88869       -0.02100
N         -1.69633       -1.99063       -0.01447
H         -2.68048       -2.25646        0.01589
H         -1.16821       -2.85288        0.09977
H         -0.84213        3.42826       -0.02560
H         -4.00993        1.95132       -0.02107
