28
Coordinates from ORCA-job ./opt_b97-3c_parallel
N         -0.50878       -3.61737        0.00083
C         -0.89872       -2.54542       -0.00008
C         -1.31611       -1.18079       -0.00133
C         -0.30153       -0.15749       -0.00167
C         -0.30005        1.26602       -0.00540
N         -1.29191        2.21752       -0.00411
C         -2.52243        1.59670       -0.00284
N         -3.16907        2.49510        0.00204
H         -4.18742        2.57920        0.01551
H         -2.83716        3.46240        0.00607
N         -3.30322        0.44833       -0.00352
C         -2.73773       -0.83676       -0.00499
N         -3.68710       -1.41494       -0.00754
H         -3.52695       -2.42560       -0.04414
H         -4.70726       -1.33269        0.01766
C          1.13475        1.27081       -0.00492
C          1.13881       -0.14436       -0.00080
C          2.18865       -1.11777        0.00615
N          2.48583       -2.18626        0.01291
H          1.86358       -2.99699        0.01290
H          3.42223       -2.59973        0.02964
N          3.51936       -0.71340        0.00498
C          4.04597        0.58712       -0.00151
C          3.49775        1.86566       -0.00606
C          2.10365        2.23033       -0.00662
H          1.84039        3.28481       -0.01014
H          4.19558        2.69966       -0.00940
H          5.14577        0.66021       -0.00206
