31
Coordinates from ORCA-job ./opt_b97-3c_parallel
N         -0.58423       -4.52193       -0.04235
C         -0.95214       -3.43984       -0.03681
C         -1.39895       -2.06906       -0.02676
C         -0.43241       -1.06292       -0.01862
C         -0.74865        0.34768       -0.00355
C         -1.84461        1.20310        0.00538
C         -1.61123        2.62907        0.02454
N         -1.43982        3.75910        0.04450
C         -3.15182        0.68952       -0.00109
N         -4.20289        1.57100        0.00496
H         -5.13962        1.22097        0.17330
H         -4.01895        2.55451        0.17506
C         -3.52748       -0.66342       -0.01598
C         -2.78051       -1.85015       -0.02584
H         -3.39113       -2.75174       -0.03529
H         -4.60213       -0.83935       -0.02084
C          0.72207        0.32259       -0.01022
C          1.02027       -1.11394       -0.01957
C          2.20971       -1.86680       -0.02421
C          3.44241       -1.21425       -0.01300
C          3.53626        0.22814        0.00914
N          4.73659        0.87638        0.04582
H          5.59342        0.34986        0.17355
H          4.76402        1.88087        0.17723
N          2.73223        1.00208        0.00212
C          1.61329        1.00464       -0.02350
N          1.60194        2.36559       -0.16976
H          2.46075        2.89848       -0.08520
H          0.72299        2.87124       -0.15077
H          4.35875       -1.79972       -0.01781
H          2.17674       -2.95319       -0.03527
