30
Coordinates from ORCA-job ./opt_b97-3c_parallel
N         -5.66398       -0.93546       -0.00116
C         -4.55860       -0.64632       -0.01669
C         -3.18072       -0.24749       -0.02082
C         -2.17080       -1.26725       -0.01969
N         -1.09491       -1.51070       -0.02006
C         -0.28987       -0.75418       -0.01738
C         -0.35058        0.70348       -0.02257
C         -1.42000        1.57516       -0.02761
C         -2.79807        1.09443       -0.02494
N         -3.44562        1.99339       -0.02498
H         -4.41384        1.67596       -0.01300
H         -3.46572        2.99651        0.14693
H         -1.20835        2.64378       -0.03087
C          1.00289        0.80594       -0.01526
C          1.14333       -0.52740       -0.00938
C          2.26574       -1.42265        0.00066
N          2.09454       -2.51285        0.00262
H          2.66749       -3.34716        0.10961
H          1.12089       -2.81332        0.01777
C          3.58231       -0.97665        0.00036
C          3.97359        0.42575       -0.00096
N          5.07651        0.51606       -0.00997
H          5.72119       -0.26179       -0.13841
H          5.63452        1.36686       -0.04444
C          3.28995        1.61892        0.01094
C          1.95172        1.85955       -0.00830
H          1.58905        2.88211       -0.01138
H          3.89022        2.52980        0.05124
H          4.37529       -1.72600        0.00072
H         -2.52664       -2.30899       -0.01712
