28
Coordinates from ORCA-job ./opt_b97-3c_parallel
N          6.04262        0.25563       -0.02604
C          4.90844        0.12362       -0.04166
C          3.48575       -0.02539       -0.02541
C          2.61130        1.11605        0.00439
N          1.54710        1.42615        0.01841
C          0.66992        0.76115        0.02414
C          0.61469       -0.68907        0.01896
C          1.58466       -1.66794       -0.01473
C          2.99401       -1.32579       -0.04148
H          3.69745       -2.15480       -0.07262
H          1.31591       -2.71846       -0.03165
C         -0.79984       -0.70890        0.02933
C         -0.77731        0.70484        0.02577
C         -1.77126        1.66331        0.01505
N         -1.57981        2.75648        0.01688
H         -2.06899        3.65575        0.02468
H         -0.58697        3.01562        0.04846
N         -3.10179        1.42371       -0.01511
C         -3.43565        0.07063       -0.01461
N         -4.54338        0.10170       -0.06165
H         -5.20112       -0.67897       -0.12230
H         -5.14177        0.92956       -0.11159
N         -3.16722       -1.29849        0.00597
C         -1.83178       -1.71781        0.03816
N         -1.80192       -2.82627        0.06244
H         -2.47922       -3.59371        0.08501
H         -0.89988       -3.29450        0.18384
H          3.19023        2.05292        0.01924
