31
Coordinates from ORCA-job ./opt_b97-3c_parallel
N         -5.19026       -2.18320       -0.00110
C         -4.19906       -1.61560       -0.00082
C         -2.93436       -0.93634       -0.00135
C         -1.70053       -1.69733       -0.00144
C         -0.46470       -0.98870       -0.00135
C         -0.11849        0.32461       -0.00233
C         -0.82543        1.49571       -0.00293
N         -0.18748        2.39995       -0.00326
H         -0.89801        3.13205       -0.00286
H          0.70134        2.89604        0.00342
C         -2.21184        1.55576       -0.00335
C         -3.00335        2.75809       -0.00426
N         -3.26578        3.87030       -0.00008
C         -3.16381        0.44504       -0.00264
H         -4.21345        0.74819       -0.00311
C          1.27638       -0.06207       -0.00266
C          0.91121       -1.37549       -0.00123
N          1.60485       -2.55804       -0.00014
C          2.93965       -2.24683       -0.00005
N          4.02643       -1.39046       -0.00069
C          3.81111       -0.05006       -0.00253
N          4.92044       -0.01935       -0.00233
H          5.00608        0.99919        0.00044
H          5.87644       -0.37540       -0.00117
C          2.52767        0.65189       -0.00386
C          2.83682        2.04817       -0.00573
N          3.46347        3.00284        0.00418
H          3.05643       -3.34246        0.00124
N         -1.55498       -2.79299        0.00017
H         -2.42167       -3.32993       -0.00003
H         -0.79191       -3.46687       -0.00001
