32
Coordinates from ORCA-job ./opt_b97-3c_parallel
N          4.78140        3.51885       -0.00150
C          4.04354        2.64508       -0.00180
C          3.15158        1.52619       -0.00083
C          1.84106        1.96814       -0.00620
C          0.77847        1.02886       -0.00868
C          0.66652       -0.32203        0.00178
C          1.63391       -1.37412        0.00800
N          1.26771       -2.41442        0.00958
H          0.39800       -2.94343       -0.00179
H          2.01829       -3.10347        0.00175
C          2.98741       -1.04798        0.00511
C          4.03052       -2.04187        0.00597
N          4.66850       -2.99065        0.00197
C          3.67354        0.17106        0.00205
H          4.76434        0.17348        0.00150
C         -0.77683       -0.18800       -0.00349
C         -0.63873        1.16576       -0.01489
C         -1.49941        2.30068       -0.01483
C         -2.87477        2.17051        0.00429
C         -3.64190        0.93507        0.01343
C         -5.06239        1.18325        0.06120
N         -6.18723        1.38771        0.06283
C         -3.15273       -0.36854       -0.02799
N         -4.12783       -1.29213       -0.23081
H         -3.96636       -2.26705        0.01852
H         -5.09321       -1.07350        0.01156
C         -1.93531       -1.02772        0.00592
C         -1.74312       -2.45503        0.05108
N         -1.63993       -3.59388        0.07316
H         -3.45904        3.08713        0.01980
H         -1.05179        3.28945       -0.01690
H          1.59198        3.02681       -0.00948
