30
Coordinates from ORCA-job ./opt_b97-3c_parallel
N          5.35957        0.57717        0.00826
C          4.23035        0.40546        0.00366
C          2.80018        0.24749        0.00050
C          2.23715        1.52535       -0.00266
N          0.98349        2.02499       -0.00707
C         -0.06258        1.12153       -0.00442
C         -0.19986       -0.28683        0.00212
C          0.75962       -1.27537        0.00449
C          0.13403       -2.56947        0.01198
N         -0.34717       -3.60404       -0.03693
C          2.13445       -1.05543        0.00181
N          2.79519       -1.94701        0.00277
H          3.81555       -1.93053       -0.03092
H          2.53456       -2.93257        0.00940
C         -1.58083       -0.13629       -0.00012
C         -1.48741        1.24426       -0.00575
C         -2.40225        2.26451       -0.00780
C         -3.71322        2.03337       -0.00808
C         -4.19129        0.75608       -0.00492
N         -3.96591       -0.61119       -0.00075
C         -2.64142       -1.03551        0.00210
N         -3.02923       -2.07335        0.00541
H         -3.86794       -2.65500        0.00929
H         -2.25670       -2.74350       -0.00053
H         -5.29037        0.84668       -0.00684
H         -4.41084        2.87152       -0.00774
H         -2.04819        3.29407       -0.00870
N          2.46068        2.61652       -0.00492
H          3.47449        2.47548       -0.00520
H          2.35004        3.63192       -0.00967
