32
Coordinates from ORCA-job ./opt_b97-3c_parallel
N          6.20933        1.64321       -0.10561
C          5.10904        1.33898       -0.08093
C          3.73948        0.91663       -0.05393
C          2.93046        2.05735       -0.06135
C          1.49098        2.12484       -0.03311
C          0.72974        0.99355       -0.00379
C          1.02647       -0.38775        0.00008
C          2.19651       -1.08739       -0.00685
C          2.25878       -2.51601        0.00568
N          1.99787       -3.62000        0.14333
C          3.44670       -0.50443       -0.02404
H          4.32925       -1.14184       -0.02427
C         -0.37471       -0.68050        0.00751
C         -0.67623        0.69277        0.01022
C         -1.89040        1.44371        0.03691
N         -1.69031        2.53031        0.07874
H         -2.47538        3.17871        0.14539
H         -0.86441        3.05926        0.35611
C         -3.16867        0.75429        0.00210
C         -4.36549        1.54602        0.01227
N         -5.34464        2.13360        0.02047
C         -3.36318       -0.69258       -0.06369
N         -2.50811       -1.74765       -0.04075
C         -1.16609       -1.85623        0.01066
N         -1.16013       -2.95776        0.01342
H         -1.54095       -3.90083        0.06868
H         -0.15064       -3.05833        0.12760
N         -4.22050       -1.39202       -0.12060
H         -4.97403       -0.71088       -0.22322
H         -4.65096       -2.30325       -0.27535
H          1.02396        3.10471       -0.04696
H          3.40601        3.03619       -0.09210
