23
Coordinates from ORCA-job ./opt_b97-3c_parallel
N          5.45297       -0.06249        0.00171
C          4.31008       -0.04578        0.00112
C          2.88332        0.01527        0.00017
C          2.06698       -1.16719       -0.00002
N          0.99781       -1.44807       -0.00022
C          0.10324       -0.79720       -0.00107
C          0.04504        0.64900       -0.00184
N          0.99148        1.66124       -0.00151
C          2.28201        1.26235       -0.00044
H          2.81441        2.22527       -0.00012
C         -1.36069        0.66353       -0.00234
C         -1.35018       -0.73584       -0.00222
C         -2.35702       -1.63304       -0.00162
C         -3.68012       -1.30190       -0.00257
C         -4.31138        0.00292       -0.00306
C         -3.73517        1.27050       -0.00302
C         -2.33388        1.62096       -0.00275
H         -2.05964        2.67110       -0.00288
H         -4.41793        2.11454       -0.00331
H         -5.39602       -0.04397       -0.00334
H         -4.39078       -2.12248       -0.00271
H         -2.09605       -2.68797       -0.00157
H          2.62056       -2.11840        0.00037
