24
Coordinates from ORCA-job ./opt_b97-3c_parallel
N          3.80280        1.26283        0.01320
C          2.82966        0.74045       -0.00167
N          3.19986       -0.50593        0.00473
C          2.56556       -1.63850        0.00766
C          1.22899       -1.97022        0.00517
C          0.33246       -0.85364       -0.00736
C          0.46054        0.50825       -0.01806
C          1.60296        1.37576       -0.01658
H          1.48279        2.45564       -0.02060
C         -0.90007        0.71430       -0.01796
C         -1.08157       -0.69204       -0.00636
C         -2.20275       -1.55768        0.01181
N         -3.48842       -1.04637        0.01800
C         -3.87702        0.29626        0.00747
C         -3.20765        1.51451       -0.00915
C         -1.78673        1.75039       -0.02007
H         -1.43152        2.77571       -0.03017
H         -3.82450        2.40800       -0.01285
H         -4.97716        0.33066        0.01652
H         -2.34825       -2.64829        0.02683
H          0.84632       -2.98697        0.01181
H          3.10787       -2.59671        0.01538
H          4.79447        1.02711        0.00319
H          3.75652        2.27281        0.14224
