31
Coordinates from ORCA-job ./opt_b97-3c_parallel
N         -5.07442       -2.01108        0.03253
C         -4.13979       -1.35552        0.01907
C         -3.00837       -0.48194        0.00428
C         -1.67545       -1.02423        0.00448
C         -0.57688       -0.11730       -0.00629
C         -0.42026        1.23040       -0.01710
C         -1.34511        2.31487       -0.02584
N         -2.66628        2.04137       -0.02245
C         -3.34391        0.86976       -0.00957
N         -4.20859        1.56434       -0.01451
H         -4.90439        0.81759        0.00270
H         -4.74209        2.43321       -0.03529
H         -0.92470        3.33241       -0.03613
C          0.95367        1.15528       -0.01510
C          0.84566       -0.26091       -0.00564
C          1.76546       -1.34896       -0.00066
C          1.22135       -2.67899        0.00411
N          0.75307       -3.72157        0.00858
C          3.12534       -1.05349       -0.00288
N          3.86547       -1.88172       -0.00410
H          4.86993       -1.91309       -0.17144
H          3.55323       -2.85063        0.04489
C          3.81497        0.16433       -0.00190
C          3.37116        1.48503       -0.00474
N          4.08541        2.32808        0.00033
H          5.05659        2.02031        0.02334
H          4.10371        3.33870        0.12542
C          2.02271        2.00339       -0.01580
H          1.84667        3.07796       -0.02091
H          4.90804        0.09704        0.00231
H         -1.51826       -2.09773        0.01610
