23
Coordinates from ORCA-job ./opt_b97-3c_parallel
N          5.01023        1.96937        0.03467
C          4.08600        1.29846        0.01480
C          2.90435        0.49650       -0.00316
C          1.67536        1.14362       -0.02067
C          0.49902        0.32083       -0.03191
C          0.26763       -1.02640       -0.02297
C          1.19151       -2.12718       -0.00536
N          2.25767       -1.80965       -0.00491
C          2.96472       -0.94870        0.00176
H          3.95068       -1.43842        0.01794
H          1.00727       -3.21226        0.00850
C         -1.09995       -0.88401       -0.02048
N         -2.10402       -1.83113        0.00483
C         -3.37063       -1.34923        0.01869
N         -3.87779       -0.04348        0.01888
C         -3.01393        1.03785        0.00300
N         -3.68147        1.91622        0.01051
H         -4.69977        1.94398        0.04563
H         -3.37321        2.88714       -0.03089
N         -1.74432        1.57682       -0.01636
C         -0.91036        0.53604       -0.03175
H         -4.07864       -2.19287        0.03633
H          1.59079        2.22667       -0.02211
