25
Coordinates from ORCA-job ./opt_b97-3c_parallel
N         -4.53528       -0.09986        0.00425
C         -3.44426       -0.28235       -0.00405
N         -2.99619        0.93986        0.00082
C         -1.87680        1.60390       -0.00198
C         -0.81312        0.73089       -0.01476
C         -0.66071       -0.63588       -0.02310
C          0.76005       -0.45702       -0.02274
C          0.61273        0.89902       -0.01558
N          1.37677        1.98733       -0.00897
C          2.67170        1.51212       -0.00363
N          3.62487        0.50606        0.00251
C          3.24113       -0.84078        0.00089
N          4.21489       -1.36395        0.01792
H          5.18026       -1.03121        0.01472
H          4.28081       -2.37556        0.13627
C          1.87986       -1.35765       -0.01734
H          1.70568       -2.42964       -0.01977
H          3.26299        2.44204       -0.00325
C         -1.47412       -1.74805       -0.02428
C         -2.91161       -1.56249       -0.01539
H         -3.54784       -2.44472       -0.01661
H         -1.06273       -2.75317       -0.03128
H         -1.70647        2.69243        0.01080
H         -5.16185        0.70556        0.02284
H         -5.15010       -0.91469       -0.00960
