27
Coordinates from ORCA-job ./opt_b97-3c_parallel
N          4.40042        1.98399       -0.00290
C          3.49784        1.28173        0.00223
C          2.38245        0.36411        0.00079
C          1.14643        1.02187       -0.00074
C         -0.08891        0.28019       -0.00244
C         -0.42685       -1.02477       -0.00249
C          0.34219       -2.21306       -0.00116
C          1.70044       -2.14518       -0.00091
C          2.59053       -1.08779        0.00071
N          3.62402       -1.49438        0.00222
H          4.35640       -0.78652       -0.00040
H          4.09181       -2.39819        0.00007
H          2.12710       -3.15312       -0.00210
H         -0.18365       -3.16263       -0.00096
C         -1.84180       -0.75887       -0.00315
N         -2.80983       -1.62109       -0.00302
C         -3.87896       -0.87444       -0.00253
C         -4.37305        0.40565       -0.00232
C         -3.50561        1.46656       -0.00263
N         -2.14660        1.75119       -0.00293
C         -1.48842        0.58153       -0.00347
H         -3.93635        2.47889       -0.00128
H         -5.44643        0.57979       -0.00057
H         -4.75601       -1.53809       -0.00022
N          0.85962        2.09321       -0.00060
H          1.59604        2.79667       -0.00105
H         -0.02989        2.58971       -0.00087
