27
Coordinates from ORCA-job ./opt_b97-3c_parallel
N         -5.00129       -1.65040        0.02862
C         -4.03137       -1.04611        0.04955
C         -2.80185       -0.30948        0.04300
C         -1.53940       -0.90490        0.02026
N         -1.31227       -1.98837        0.00177
H         -0.56864       -2.62248       -0.28283
H         -2.18787       -2.49937       -0.09917
C         -0.40544       -0.11306        0.01227
C         -0.18474        1.23286        0.01478
C         -1.11851        2.32574        0.03570
N         -2.19387        2.03120        0.05643
C         -2.85878        1.13752        0.05911
H         -3.85040        1.61470        0.08106
H         -0.61979        3.30672        0.03645
C          1.16906        1.08631       -0.00843
N          2.24379        1.94140       -0.03658
C          3.46177        1.36317       -0.05393
C          3.99797        0.08209       -0.03645
C          3.24740       -1.16000       -0.00527
N          3.87099       -2.07207        0.02250
H          4.86789       -2.00757        0.21946
H          3.59725       -3.03346        0.21513
C          1.89539       -1.36673       -0.01613
C          1.02529       -0.33107       -0.00706
H          1.49159       -2.37840        0.00909
H          5.08224       -0.00640       -0.04285
H          4.22039        2.15932       -0.07893
