29
Coordinates from ORCA-job ./opt_b97-3c_parallel
N          4.92437        2.09695       -0.12073
C          3.93985        1.52024       -0.07494
C          2.74124        0.74216       -0.01907
C          1.46535        1.41554        0.02441
C          0.27811        0.63037        0.04982
C         -0.00869       -0.68990        0.06185
C          0.78603       -1.88230        0.07362
N          0.46496       -2.94079        0.11938
H         -0.46472       -3.23363        0.41923
H          1.02017       -3.79829        0.14211
N          2.13182       -1.73699        0.02401
C          2.93710       -0.64225       -0.02492
N          3.79721       -1.34755       -0.06361
H          4.33512       -2.21396       -0.13069
H          4.51242       -0.61646       -0.11590
C         -1.42278       -0.39983        0.06289
C         -1.11445        0.95048        0.06266
C         -1.89727        2.06893        0.06363
C         -3.25488        1.92939        0.02979
N         -4.27519        0.99393       -0.03670
C         -3.82084       -0.31563       -0.04156
N         -4.84502       -0.72637       -0.14628
H         -5.75839       -0.26783       -0.10825
H         -5.05891       -1.69121       -0.40007
C         -2.64395       -1.02015        0.03089
H         -2.67726       -2.10760        0.00643
H         -3.76278        2.90720        0.05893
H         -1.44747        3.05924        0.11106
H          1.40989        2.50094        0.01785
