34
Coordinates from ORCA-job ./opt_b97-3c_parallel
N          5.74022        0.66582       -0.09481
C          4.66681        0.27722       -0.05692
C          3.33313       -0.25446       -0.01979
C          3.25885       -1.70386        0.04219
N          2.21535       -2.56951        0.07892
C          0.88366       -2.38890        0.06681
N          0.75705       -3.48529        0.11306
H          1.10655       -4.43060        0.26878
H         -0.26025       -3.57766        0.08762
C          0.36899       -1.06316        0.01146
C          0.91609        0.17968       -0.02376
C          2.27047        0.65122       -0.04661
N          2.34075        1.75132       -0.09878
H          1.79367        2.60894       -0.03365
H          3.31003        2.05901       -0.17814
C         -0.41956        0.74360       -0.04129
C         -0.95229       -0.51057       -0.01479
C         -2.26746       -1.08884       -0.02913
C         -2.36899       -2.52049       -0.02833
N         -2.38840       -3.66312       -0.03266
C         -3.41293       -0.29025       -0.06854
N         -4.45022       -0.68302       -0.09396
H         -4.67291       -1.67555       -0.15603
H         -5.34346       -0.19193       -0.08194
C         -3.45692        1.16945       -0.08495
C         -2.42218        2.08034       -0.05981
N         -3.02588        3.28923       -0.05657
H         -3.97392        3.39819        0.29975
H         -2.49993        4.12769        0.18865
C         -1.05223        2.02538       -0.06400
C         -0.25909        3.22195       -0.05827
N          0.25131        4.10956        0.44900
H         -4.47160        1.58173       -0.12561
H          4.18009       -2.30669        0.06227
