27
Coordinates from ORCA-job ./opt_b97-3c_parallel
N          3.85960        1.55906        0.00472
C          2.91067        0.60812       -0.05147
C          1.69851        1.22597       -0.03696
C          0.56856        0.37599       -0.00704
C          0.45418       -1.04264       -0.00009
C          1.37490       -2.13933       -0.02754
C          2.80847       -1.92927       -0.07471
C          3.47350       -0.64047       -0.09033
H          4.55634       -0.72881       -0.13826
H          3.43780       -2.81293       -0.10525
H          0.98883       -3.15335       -0.02283
C         -0.97172       -0.91339        0.02457
C         -0.85397        0.50422        0.01640
C         -1.86728        1.51733        0.01896
N         -1.54756        2.57274        0.00259
H         -0.62366        2.83633       -0.33345
H         -2.17924        3.33515       -0.23316
C         -3.18461        1.12507        0.03852
C         -3.58470       -0.19063        0.04552
N         -3.09159       -1.19237        0.04448
C         -2.13194       -1.76208        0.03537
H         -1.90785       -2.83847        0.03177
H         -4.67980       -0.25062        0.13549
H         -3.96003        1.88928        0.05398
H          1.54999        2.30288       -0.04328
H          4.79828        1.32741        0.32349
H          3.63270        2.49191        0.34348
