34
Coordinates from ORCA-job ./opt_b97-3c_parallel
N         -1.78989       -3.63784       -0.04158
C         -1.76991       -2.49493       -0.02609
C         -1.72941       -1.05339       -0.02138
C         -0.48351       -0.40509       -0.00475
C         -0.47098        1.04858       -0.04206
C          0.94776        0.68874       -0.04053
C          0.93077       -0.75445        0.02592
C          1.98493       -1.66205        0.09305
N          1.60314       -2.97019        0.17962
H          0.62831       -3.21187        0.03288
H          2.30136       -3.69747        0.07239
C          3.33442       -1.31469        0.08730
C          3.92623       -0.04321        0.00837
N          5.29442       -0.04780        0.01984
H          5.78451        0.83005        0.15216
H          5.77689       -0.90491        0.26675
C          3.33942        1.23198       -0.08049
C          1.99366        1.61130       -0.10282
N          1.72510        2.94933       -0.19597
H          2.48501        3.57840       -0.43115
H          0.78364        3.23588       -0.43749
H          4.04541        2.05989       -0.13597
H          4.02429       -2.15481        0.15119
C         -1.40743        2.08351       -0.03665
C         -2.81528        1.76804        0.00178
N         -3.77939        2.70296        0.24148
H         -3.51367        3.64531        0.50367
H         -4.72472        2.40016        0.44802
N         -3.27374        0.75381       -0.03655
C         -2.98620       -0.32225       -0.05135
N         -4.22340       -0.90235       -0.12934
H         -4.30454       -1.90175       -0.28197
H         -5.04415       -0.32494       -0.27248
H         -1.09628        3.12471       -0.04641
