27
Coordinates from ORCA-job ./opt_b97-3c_parallel
N          4.54576        0.19431       -0.01843
C          3.46853       -0.06356       -0.00515
N          2.80817        1.18250        0.01417
C          1.43275        1.45780        0.02412
N          1.43898        2.56528        0.03373
H          2.20080        3.24344        0.10288
H          0.59684        3.14081       -0.01154
C          0.47951        0.46632        0.01478
C          0.57163       -0.95350        0.00861
C          1.61645       -1.80899        0.01261
C          2.92180       -1.41174       -0.00936
H          3.66969       -2.20118       -0.02791
H          1.40741       -2.87731        0.03763
C         -0.87075       -1.01626        0.00131
C         -0.94737        0.40073        0.00822
N         -1.95328        1.28299        0.00399
C         -3.13915        0.57319       -0.00726
N         -3.95118        1.32264       -0.01337
H         -4.92719        1.02292        0.01930
H         -3.99211        2.34016       -0.07021
N         -3.87016       -0.59830       -0.01626
C         -3.21445       -1.83108       -0.01459
C         -1.78163       -2.05161       -0.00702
H         -1.44693       -3.08474       -0.00852
H         -3.92340       -2.67428       -0.02172
H          5.23657        0.94762       -0.01532
H          5.10688       -0.65999       -0.04617
