25
Coordinates from ORCA-job ./opt_b97-3c_parallel
N         -3.38471       -1.93714        0.00855
C         -2.52737       -1.23746        0.02157
N         -2.96815       -0.00663        0.00937
C         -2.54344        1.23010       -0.00216
N         -3.39770        1.93305       -0.00617
H         -4.41388        2.02847       -0.02981
H         -3.04573        2.88921        0.06109
C         -1.22276        1.64636       -0.00889
C         -0.25249        0.67478        0.01084
C         -0.22016       -0.69564        0.03650
C         -1.22727       -1.71508        0.04273
H         -0.95939       -2.76907        0.05580
C          1.20529       -0.67956        0.03769
C          1.18161        0.67310        0.01099
C          2.18597        1.67124       -0.01753
N          3.46359        1.25612       -0.01622
C          4.00103        0.01075        0.00852
N          3.51929       -1.30691        0.03910
C          2.22180       -1.66871        0.05248
H          2.55266       -2.71823        0.07082
H          5.10184       -0.01965        0.00271
H          2.47298        2.73327       -0.04546
H         -0.94689        2.69844       -0.02489
H         -4.40110       -2.02493        0.04418
H         -3.04269       -2.89354       -0.09545
