27
Coordinates from ORCA-job ./opt_b97-3c_parallel
N         -4.73069       -0.17460        0.02000
C         -3.65537        0.09226        0.00882
N         -3.10923       -1.08824        0.00893
C         -1.92489       -1.62657       -0.00193
C         -0.86551       -0.74371       -0.00952
C         -0.85222        0.61857       -0.00815
C          0.56812        0.55491       -0.00839
N          1.53359        1.56207        0.01329
C          2.86439        1.17499        0.01059
N          3.28575        2.20234        0.05447
H          4.26903        2.38074        0.28003
H          2.90961        3.14037       -0.11008
C          3.57087        0.00487       -0.02396
C          2.89409       -1.18410       -0.02289
N          3.36587       -2.19129       -0.03246
H          4.38343       -2.28920       -0.10044
H          3.04525       -3.16327        0.00921
N          1.63776       -1.66564       -0.01790
C          0.51647       -0.90459       -0.01281
H          4.65867        0.02209       -0.11328
C         -1.75477        1.66479       -0.00487
C         -3.18148        1.39525        0.00050
H         -3.86550        2.24188        0.00056
H         -1.41627        2.69750       -0.00907
H         -2.14524       -2.70609        0.00281
H         -5.33427       -1.00006        0.00571
H         -5.38323        0.61103        0.06635
