27
Coordinates from ORCA-job ./opt_b97-3c_parallel
N          5.91763        0.21472        0.05404
C          4.77736        0.13368        0.03257
C          3.35557       -0.00596        0.01337
C          2.76119        1.25134       -0.02593
N          1.50774        1.75322       -0.05452
C          0.50653        0.81653       -0.07206
C          0.45950       -0.60297       -0.04585
C          1.38216       -1.58821        0.02864
C          2.71735       -1.30732        0.04177
H          3.40642       -2.14586        0.08090
H          1.06000       -2.62025        0.14204
C         -0.91758       -0.52886       -0.04242
C         -0.91806        0.83693       -0.06624
C         -1.89609        1.88932       -0.04563
N         -3.25713        1.58003        0.01082
C         -3.62949        0.24208        0.02160
N         -4.66495        0.62778        0.09158
H         -5.21941        1.48378        0.09222
H         -5.33215       -0.12747        0.24836
C         -3.31671       -1.09126       -0.00263
C         -2.00095       -1.46704       -0.00747
N         -1.82004       -2.55549        0.00182
H         -0.88768       -2.92100       -0.18380
H         -2.46170       -3.33887       -0.11930
H         -4.10821       -1.83691       -0.10550
H         -1.36051        2.85099       -0.06275
H          3.22363        2.25088       -0.04217
