30
Coordinates from ORCA-job ./opt_b97-3c_parallel
N         -5.63383       -0.22738       -0.00001
C         -4.49483       -0.13706       -0.00510
C         -3.06479       -0.06459       -0.00669
C         -2.39876       -1.28377       -0.00837
C         -1.02085       -1.43450       -0.00967
C         -0.54664       -2.78224       -0.01059
N         -0.10649       -3.83655       -0.01093
C         -0.09811       -0.40499       -0.00779
C         -0.25412        0.97676       -0.00447
N         -1.26275        1.44146       -0.00498
C         -2.34406        1.18838       -0.00599
N         -2.71597        2.23093       -0.00651
H         -2.56045        3.23434       -0.08000
H         -3.72525        2.09334        0.00626
C          1.19254        1.03427       -0.00140
C          1.26551       -0.35485       -0.00630
C          2.35773       -1.26835       -0.00723
N          2.70943       -2.31551       -0.00993
H          1.87581       -2.90654       -0.01938
H          3.49926       -2.95990       -0.00316
N          3.67204       -0.82092       -0.00506
C          4.13989        0.49965       -0.00063
C          3.53589        1.75127        0.00512
C          2.12167        2.03645        0.00568
N          1.80907        3.09402        0.01242
H          2.29713        3.98501        0.10093
H          0.81399        3.31777       -0.01538
H          4.20389        2.61081        0.00943
H          5.23090        0.64904        0.00005
H         -3.00666       -2.18698       -0.00886
