28
Coordinates from ORCA-job ./opt_b97-3c_parallel
N         -2.00901       -3.06987       -0.11245
C         -2.73559       -2.20223        0.04172
C         -2.25316       -0.85548        0.00560
C         -1.06464       -0.15404       -0.02675
C         -0.80170        1.25822       -0.06472
C          0.59885        0.94775       -0.06495
C          0.33241       -0.45537       -0.02681
C          1.12458       -1.58644        0.00460
N          0.97258       -2.68474        0.02753
H         -0.04038       -2.84036        0.00221
H          1.35284       -3.63500       -0.00101
N          2.47622       -1.59055        0.03124
C          3.04681       -0.31718        0.00424
N          4.13836       -0.50370        0.05707
H          4.58872       -1.41895        0.12961
H          4.91674        0.15767        0.11418
N          3.03840        1.07643       -0.04517
C          1.80596        1.73799       -0.09359
N          1.91743        2.84031       -0.14093
H          2.67639        3.52725       -0.15671
H          1.07393        3.40355       -0.27764
C         -1.61139        2.35958       -0.07965
C         -2.94029        2.02482       -0.01973
N         -3.55534        1.09768        0.00458
C         -3.42373       -0.00752        0.01605
H         -4.50588       -0.21192        0.04235
H         -3.64885        2.85299        0.14256
H         -1.27099        3.32276        0.29317
