32
Coordinates from ORCA-job ./opt_b97-3c_parallel
N         -5.42798       -0.76904        0.01418
C         -4.29876       -0.59440        0.00570
C         -2.87932       -0.33597        0.00264
C         -1.96732       -1.45980        0.00080
N         -0.87942       -1.67266        0.00038
C         -0.01726       -0.97730       -0.00098
C          0.05711        0.47313       -0.00483
C         -0.98430        1.39148       -0.00605
C         -0.49826        2.74400       -0.01246
N         -0.38141        3.87902        0.03654
C         -2.39469        0.98184       -0.00021
N         -3.08602        1.85360        0.00075
H         -4.09400        1.70368        0.02570
H         -2.94494        2.86311        0.02596
C          1.43250        0.44317       -0.00499
C          1.42026       -0.90869       -0.00063
C          2.40639       -1.96076        0.00502
N          2.30973       -3.05931        0.01081
H          2.88224       -3.90152        0.04646
H          1.33700       -3.36926        0.02116
N          3.76699       -1.66480        0.00350
C          4.12352       -0.32758       -0.00172
C          3.84816        1.00722       -0.00630
C          2.52757        1.38160       -0.00644
N          2.52791        2.48418       -0.00717
H          1.67433        3.04103       -0.00508
H          3.29468        3.15581        0.00399
H          4.67912        1.72035       -0.01938
H          5.22117       -0.41907       -0.00368
N         -2.18866       -2.55136       -0.00047
H         -3.20252       -2.44622       -0.00519
H         -2.01783       -3.55350       -0.04618
