27
Coordinates from ORCA-job ./opt_b97-3c_parallel
N         -4.48850       -0.19907       -0.01823
C         -3.40596        0.03780       -0.00991
N         -2.75075       -1.21287       -0.01331
C         -1.40757       -1.39956       -0.00194
N         -1.41802       -2.50896       -0.00950
H         -0.58728       -3.09899       -0.07289
H         -2.19025       -3.17899        0.02329
C         -0.39243       -0.47130        0.01313
C         -0.48916        0.92653        0.01635
C          0.94977        1.01021        0.03121
N          1.64393        2.10107        0.04255
C          2.89970        1.76386        0.04681
C          3.74854        0.68938        0.02672
C          3.23923       -0.58694        0.04394
N          3.86994       -1.49779        0.07421
H          3.94573       -2.51467        0.02139
H          4.83432       -1.17823        0.18419
N          2.00539       -1.24696        0.04109
C          0.97679       -0.37147        0.02794
H          4.81890        0.86386       -0.08382
H          3.42566        2.73073       -0.00467
C         -1.54240        1.77373        0.00960
C         -2.85028        1.38363        0.00182
H         -3.59319        2.17831        0.00328
H         -1.33285        2.84253        0.01698
H         -5.18962       -0.94309       -0.01784
H         -5.04025        0.66209       -0.02653
