30
Coordinates from ORCA-job ./opt_b97-3c_parallel
N          5.64365        0.73547        0.00608
C          4.56768        0.34967        0.01711
C          3.22752       -0.17000        0.01690
C          2.15568        0.72873        0.01661
N          2.22054        1.83581        0.01597
H          1.67945        2.66050       -0.23443
H          3.20116        2.10850       -0.02374
C          0.82484        0.35359        0.00668
C          0.13885       -0.81289       -0.00688
C          0.63105       -2.14299       -0.00532
C          1.96495       -2.39988        0.02542
C          3.08937       -1.61756        0.01733
H          4.03813       -2.14699        0.01859
H          2.18896       -3.46334        0.06839
H         -0.07232       -2.96859       -0.01436
C         -1.09375       -0.21573       -0.01045
C         -0.44600        1.05080        0.00667
C         -0.89608        2.32357        0.02992
C         -2.20796        2.68517        0.02856
C         -3.39266        1.85692        0.00924
C         -3.47902        0.46164       -0.01225
N         -4.54710        0.16921       -0.02198
H         -5.46641        0.60385        0.02439
H         -4.69721       -0.83813        0.00805
C         -2.42826       -0.54483       -0.01943
C         -2.63967       -1.96402       -0.03957
N         -3.05927       -3.02714       -0.01473
H         -4.30377        2.45683        0.01396
H         -2.42512        3.74838        0.04671
H         -0.16226        3.12285        0.08899
