28
Coordinates from ORCA-job ./opt_b97-3c_parallel
N          4.93555        1.51665       -0.05123
C          3.79717        1.60007       -0.00736
C          2.65410        0.73897       -0.00242
C          1.47212        1.45598       -0.00692
C          0.24040        0.75079       -0.00240
C         -0.14037       -0.54004        0.00728
C          0.61330       -1.75463        0.01606
N          0.47392       -2.85582        0.02516
H         -0.36736       -3.42916        0.07804
H          1.23405       -3.54120        0.00223
N          2.00423       -1.86252        0.01539
C          2.80989       -0.70913        0.00635
N          3.55483       -1.52494        0.01074
H          4.20113       -0.73458       -0.00354
H          4.14511       -2.35692        0.00953
C         -1.55582       -0.19547        0.00588
N         -2.60831       -0.95511        0.00992
C         -3.71804       -0.25943       -0.00429
N         -4.47308       -1.06535       -0.10450
H         -5.37006       -0.61709       -0.30057
H         -4.70358       -2.05269        0.01726
C         -4.09550        1.06481        0.04492
C         -3.17883        2.08207        0.00767
N         -1.81157        2.30880       -0.01093
C         -1.12403        1.11595       -0.00285
H         -3.46943        3.14482       -0.00212
H         -5.14401        1.33170        0.17978
H          1.43778        2.54340       -0.01351
