30
Coordinates from ORCA-job ./opt_b97-3c_parallel
N         -4.49569       -2.26272       -0.00483
C         -3.65866       -1.48420       -0.00802
C         -2.57151       -0.53713       -0.00875
C         -1.22663       -1.08952       -0.00461
C         -0.12423       -0.18675        0.00144
C         -0.00689        1.16619        0.00026
C         -0.85918        2.22143       -0.00937
C         -2.22901        2.08570       -0.01639
C         -2.97539        0.81596       -0.01371
N         -4.01094        1.22058       -0.01707
H         -4.54061        2.09032        0.01639
H         -4.70086        0.47032       -0.02311
H         -2.76308        3.04154       -0.02363
H         -0.44302        3.22441       -0.01211
C          1.41834        1.03163        0.00567
C          1.30314       -0.32201        0.00553
N          2.22569       -1.34554       -0.01151
C          3.50128       -0.80874       -0.00707
N          3.84464       -1.86094       -0.04046
H          3.51336       -2.82605       -0.02187
H          4.85277       -1.92135       -0.17653
C          4.31132        0.30059        0.01424
C          3.85448        1.56105        0.01824
C          2.53109        1.92883        0.00324
H          2.29800        2.98940       -0.00242
H          4.59085        2.36210        0.03902
H          5.39140        0.16016        0.03322
N         -0.84747       -2.13069       -0.00037
H         -0.12005       -2.83850        0.07074
H         -1.73535       -2.63172        0.02415
