28
Coordinates from ORCA-job ./opt_b97-3c_parallel
N          5.70622        0.59187       -0.01757
C          4.57257        0.45059       -0.01722
C          3.14888        0.30871       -0.00559
C          2.43810        1.49865       -0.00337
N          1.11976        1.79228        0.00528
C          0.26104        0.70774        0.01390
C          0.41415       -0.73964        0.01361
N          1.39886       -1.25067        0.00804
C          2.47237       -0.96783        0.00169
N          2.86754       -2.00316        0.00175
H          2.83619       -3.02036        0.02286
H          3.85306       -1.74535        0.00413
C         -0.97331       -0.75516        0.01467
C         -1.14518        0.58411        0.01687
C         -2.27483        1.46386        0.01539
N         -2.13074        2.55754        0.00846
H         -2.60431        3.45826        0.07440
H         -1.13209        2.76873       -0.02538
C         -3.54054        0.94400        0.03452
C         -3.74673       -0.41221       -0.00676
N         -4.76075       -0.85500       -0.05712
H         -5.43079       -0.11473       -0.26320
H         -5.31599       -1.70678        0.03000
N         -3.32774       -1.69319       -0.02739
C         -1.93602       -1.82017       -0.00314
H         -1.42091       -2.79314       -0.01129
H         -4.38844        1.61488        0.18591
H          2.82187        2.53036       -0.00917
