29
Coordinates from ORCA-job ./opt_b97-3c_parallel
N         -5.59646       -1.08548       -0.01074
C         -4.46254       -0.95573        0.00578
C         -3.03598       -0.76294        0.00190
C         -2.25547       -1.98629        0.00233
C         -0.90807       -2.16524       -0.00124
C         -0.00069       -1.17023        0.00113
C         -0.11430        0.23999        0.00154
C         -1.20293        1.08861        0.00019
C         -0.68259        2.43232        0.00034
N         -0.51108        3.56218       -0.00056
C         -2.57391        0.56933       -0.00017
N         -3.23244        1.46650        0.00096
H         -3.11844        2.47924       -0.00041
H         -4.23700        1.29210       -0.00056
C          1.31532        0.34103        0.00189
C          1.43321       -1.07715        0.00128
C          2.48250       -1.94978        0.00030
C          3.73951       -1.50204       -0.00037
C          4.01534       -0.15544        0.00007
N          5.07071        0.18144       -0.00023
H          5.75988       -0.57118        0.00004
H          5.61585        1.04361       -0.00045
N          3.60783        1.17527        0.00044
C          2.26605        1.33751        0.00136
H          2.08746        2.42392        0.00092
H          4.54841       -2.23262       -0.00083
H          2.28920       -3.02046        0.00091
H         -0.53776       -3.18712       -0.00118
H         -2.85510       -2.89307        0.00402
