32
Coordinates from ORCA-job ./opt_b97-3c_parallel
N         -4.84353       -1.63456        2.24628
C         -4.07844       -1.04570        1.63252
C         -3.10019       -0.34959        0.84895
C         -3.95028       -0.24306       -0.21450
N         -3.21009        0.51464       -0.98623
C         -1.95731        0.50896       -0.40286
C         -1.65924       -0.25543        0.76826
C         -1.29732       -1.50850        0.17463
C          0.10600       -1.74270       -0.07423
N          0.14512       -2.83229       -0.26846
H         -0.46503       -3.55391        0.11160
H          0.97591       -2.82702        0.32158
C          1.16207       -0.75493        0.12658
C          1.14142        0.68623        0.26550
C          0.18607        1.74804       -0.04019
C         -1.08474        1.61196       -0.70922
C         -1.55624        2.74291       -1.45501
N         -1.91169        3.66986       -2.02165
H          0.59167        2.75527       -0.05294
C          2.49915        1.10403        0.49264
C          3.30760       -0.01746        0.44037
C          4.74721       -0.01332        0.56421
N          5.77570        0.07156        0.07224
C          2.47889       -1.17405        0.19916
N          2.97814       -2.16156        0.11590
H          3.96910       -2.27517       -0.09257
H          2.46787       -2.49812       -0.69979
N          2.91242        2.12663        0.62043
H          3.88059        2.27075        0.34002
H          2.63357        2.94677        1.15420
H         -2.01914       -2.32368        0.05622
H         -4.73908       -0.00815       -0.94556
