31
Coordinates from ORCA-job ./opt_b97-3c_parallel
N          2.35886        3.58854        0.43047
C          1.90509        2.54855        0.29993
C          1.38504        1.21382        0.13223
C          2.31625        0.10650        0.05882
N          3.58737        0.35893        0.14193
C          4.16805       -0.79393       -0.00482
C          3.38174       -1.85767       -0.35664
C          2.15390       -1.28788       -0.19500
C          1.02004       -2.17533       -0.22234
C         -0.33763       -2.04734       -0.06041
C         -1.21484       -0.90830        0.00191
C         -1.03962        0.45017       -0.02685
C          0.00904        1.34810        0.02017
H         -0.34111        2.37999        0.02179
C         -2.36046        1.03916       -0.06012
C         -3.30610        0.03181       -0.00980
C         -4.74763        0.12601       -0.00704
N         -5.87203        0.28904        0.10221
C         -2.62093       -1.23326        0.04168
N         -3.16638       -2.19935        0.08436
H         -2.80397       -3.04713        0.51571
H         -4.17496       -2.20580        0.23299
N         -2.74054        2.08167       -0.10517
H         -3.72689        2.32630       -0.19188
H         -2.21707        2.85204       -0.51596
H         -0.84151       -3.00959       -0.06396
H          1.32924       -3.20843       -0.36096
H          3.60006       -2.86847       -0.01712
N          5.26965       -0.69933        0.05427
H          5.92867       -1.46777       -0.07345
H          5.84168        0.13021        0.21709
