29
Coordinates from ORCA-job ./opt_b97-3c_parallel
N         -1.41417       -4.37513       -0.19038
C         -1.17528       -3.25986       -0.11129
C         -0.84906       -1.86769        0.02684
C         -1.89257       -0.86409       -0.01411
N         -3.19449       -1.21006       -0.33176
C         -3.94683       -0.12262       -0.36634
C         -3.10519        0.90091       -0.04768
C         -3.58888        2.24912       -0.06322
N         -3.96782        3.32629       -0.11589
C         -1.76053        0.51811        0.24271
N         -0.96827        1.20416        0.57329
C          0.07232        1.53266        0.56743
N         -0.04175        2.60827        0.80418
H          0.57388        2.38513        1.58406
H         -0.81974        3.14022        1.19166
C          1.24576        0.76005        0.30898
C          2.51505        1.40503        0.28919
C          3.49181        0.39150        0.03025
C          4.87222        0.76407       -0.06452
N          5.96948        1.06910       -0.17124
C          2.82891       -0.82139       -0.08252
N          3.42663       -1.72858       -0.29520
H          4.39467       -1.63527       -0.59927
H          2.94277       -2.25587       -1.01987
C          1.41690       -0.58662        0.09892
C          0.54385       -1.75402        0.05664
H          1.10074       -2.68603       -0.01877
H          2.70981        2.46319        0.43570
H         -4.99256       -0.34977       -0.62087
