29
Coordinates from ORCA-job ./opt_b97-3c_parallel
N          1.35181        3.69047        0.80600
C          1.14035        2.63708        0.42109
C          0.93068        1.30809       -0.05794
C          1.91574        0.26525        0.09250
N          3.12403        0.43509        0.72206
C          3.77031       -0.78804        0.63401
N          2.94601       -1.68869       -0.03945
C          1.77020       -1.06053       -0.39963
N          0.71058       -1.49208       -1.01574
C         -0.54555       -1.79491       -0.88145
N         -0.43291       -2.87071       -1.09722
H         -0.21060       -3.85942       -1.21552
H         -1.35175       -2.74144       -1.52195
C         -1.59109       -0.89217       -0.45068
C         -2.85583       -1.30228       -0.17065
C         -3.07604        0.03992        0.01001
C         -4.50592        0.09372        0.10583
N         -5.64234        0.12688        0.21490
C         -2.41209        1.23891        0.09886
N         -2.62265        2.52135        0.43535
H         -3.54019        2.81798        0.76964
H         -1.91958        3.05861        0.93966
C         -1.34279        0.51195       -0.32315
C         -0.23079        1.17642       -0.76255
H         -0.30819        1.70159       -1.71403
H         -3.04943       -2.02101        0.62489
N          4.77335       -0.82086        1.09678
H          5.24776       -1.62480        1.51115
H          5.43980       -0.04913        1.16927
