28
Coordinates from ORCA-job ./opt_b97-3c_parallel
N         -1.68309       -3.52937       -0.44352
C         -1.16320       -2.51626       -0.35043
C         -0.55051       -1.21770       -0.21249
C         -1.49847       -0.11859       -0.02753
C         -1.42748        1.25829        0.00658
N         -0.50315        2.14890       -0.38425
C          0.52845        1.54255       -1.04315
C          1.61269        1.24081       -0.17444
C          2.72287        2.01553        0.01756
N          3.59353        1.10265        0.43812
C          3.13871       -0.20195        0.52873
N          4.09628       -0.63310        0.87653
H          3.85101       -1.48328        1.38392
H          5.11352       -0.64770        0.78556
C          1.76620       -0.13553        0.11042
C          0.85699       -1.19183       -0.06056
N          1.46188       -2.12760       -0.00361
H          1.91228       -2.53909       -0.82294
H          0.97898       -2.90171        0.45728
H          3.19423        3.00986       -0.03138
H          0.73177        2.60335       -1.26222
C         -2.60605        1.84755        0.36042
C         -3.52251        0.83314        0.35756
N         -2.78405       -0.21042        0.13630
N         -4.58702        0.59493        0.54011
H         -5.12387       -0.27302        0.49997
H         -5.27036        1.32488        0.74856
H         -2.87556        2.84702        0.01955
