28
Coordinates from ORCA-job ./opt_b97-3c_parallel
N         -0.85543       -4.26824        0.38681
C         -0.85189       -3.12719        0.33200
C         -0.78839       -1.68977        0.26203
C         -2.09444       -1.23385        0.27247
C         -2.63210        0.03030        0.23097
C         -2.23489        1.34642        0.14326
C         -1.03693        2.01850        0.05587
C          0.28713        1.60962        0.04985
C          1.07333        2.81223       -0.04659
N          1.74140        3.44979       -0.71988
C          0.90625        0.30135        0.13217
C          0.48764       -1.00682        0.21494
N          1.59391       -1.84881        0.26027
C          2.69999       -1.09651        0.21426
C          2.34166        0.29108        0.12831
C          3.63891        0.90244        0.09029
N          4.72138        0.95110        0.45578
N          3.30126       -2.02740        0.27289
H          4.19249       -1.53477        0.36384
H          3.52336       -3.02132        0.33739
H         -1.19496        3.09710       -0.01486
C         -3.36518        2.12652        0.14456
C         -4.45437        1.38467        0.23164
C         -4.06045        0.09560        0.28469
H         -4.71389       -0.76893        0.35840
H         -5.48010        1.74565        0.25643
H         -3.38298        3.21363        0.08722
H         -2.86724       -2.00291        0.32953
