30
Coordinates from ORCA-job ./opt_b97-3c_parallel
N          5.77590       -0.42787        0.15419
C          4.64043       -0.30700        0.20793
C          3.21427       -0.14982        0.23569
C          2.40483       -1.22370        0.05319
C          1.12573       -0.71186        0.15812
C          1.19700        0.65908        0.36733
C          0.25088        1.73103        0.58055
C         -1.11351        1.82176        0.49348
C         -2.13073        0.86991        0.17586
C         -2.26835       -0.47233       -0.01904
N         -3.53776       -0.85935       -0.24789
C         -4.30222        0.29780       -0.21701
C         -3.44405        1.40590        0.06633
H         -3.74116        2.44550        0.17030
N         -5.37027        0.09308       -0.40629
H         -5.75282       -0.76853       -0.79490
H         -6.14748        0.75153       -0.35768
C         -1.36962       -1.59184        0.02387
C          0.01738       -1.65527        0.10511
N          0.24560       -2.74160        0.05024
H          0.01921       -3.67937       -0.27805
H          1.03660       -2.84304        0.68508
H         -1.92170       -2.53538       -0.07783
H         -1.50466        2.82345        0.65158
H          0.70079        2.69441        0.80472
C          2.51022        1.07215        0.42753
N          3.07217        2.01700        0.57285
H          2.91046        2.84627        0.00489
H          4.07926        1.95096        0.71390
H          2.65339       -1.96228       -0.70752
