27
Coordinates from ORCA-job ./opt_b97-3c_parallel
N         -2.48541       -3.10810       -0.60932
C         -1.85203       -2.65302        0.22744
C         -1.24418       -1.36697        0.01003
C         -2.03205       -0.21863        0.02674
N         -3.35800       -0.25270        0.41107
C         -3.89934        1.00569        0.21342
N         -2.90526        1.80762       -0.33414
C         -1.74404        1.07466       -0.46549
N         -0.65945        1.38122       -1.07789
C          0.45822        1.69603       -0.53464
C          1.40676        0.70933       -0.13058
C          1.29330       -0.72084       -0.08273
C          2.50367       -1.32855        0.12453
C          3.32577       -0.24642        0.29662
C          4.71240       -0.48382        0.56055
N          5.82602       -0.65296        0.74414
C          2.76129        1.06321        0.13014
N          3.21451        2.07240        0.15130
H          3.38839        3.05803        0.34838
H          4.13568        1.66211       -0.00627
H          2.82329       -2.17612       -0.48052
C          0.19926       -1.58848       -0.12022
H          0.48954       -2.64028       -0.09265
H          0.73659        2.76051       -0.59029
N         -4.96617        1.06448        0.49662
H         -5.64398        0.30124        0.44974
H         -5.51300        1.89602        0.72683
