27
Coordinates from ORCA-job ./opt_b97-3c_parallel
N         -4.08186       -2.48200       -0.53332
C         -3.33920       -1.62503       -0.38946
C         -2.42007       -0.55091       -0.16468
C         -2.82406        0.74296        0.30284
N         -3.81424        1.17256        0.55061
H         -4.38627        1.99538        0.36991
H         -4.38901        0.36233        0.32434
C         -1.81744        1.66903        0.44119
C         -0.74335        0.88676        0.10343
N         -0.22739        1.69761       -0.83742
C          1.14755        1.85880       -0.79439
C          1.97947        0.99203       -0.01170
C          3.29306        1.35927        0.39058
C          4.07924        0.32042        0.82129
C          3.28553       -0.75836        0.50038
N          3.79536       -1.73661        0.56832
H          4.69100       -2.13114        0.28695
H          3.10709       -2.48338        0.49369
C          1.96743       -0.41917        0.06128
C          1.14124       -1.37973       -0.62430
N         -0.23798       -1.37696       -0.80902
C         -1.07035       -0.43718       -0.31809
H          0.66887       -2.26400       -1.07755
H          5.14991        0.32505        0.61801
H          3.65170        2.37475        0.25581
H          0.51829        2.53549       -1.39237
H         -1.76623        2.33788        1.29996
