25
Coordinates from ORCA-job ./opt_b97-3c_parallel
N         -4.80283       -0.37305        0.18286
C         -3.73589       -0.09552        0.07130
N         -2.84809       -1.14103       -0.14931
C         -1.58335       -0.60731       -0.23207
N         -0.45263       -1.16168       -0.47551
C          0.76531       -1.49229       -0.25149
C          1.78113       -0.51293       -0.04513
C          1.64187        0.90790       -0.00375
C          2.99729        1.37176        0.13719
N          3.87614        0.28922        0.19475
C          3.11315       -0.80846        0.08132
N          3.96252       -1.52134        0.13046
H          3.99679       -2.49857        0.42750
H          4.94024       -1.28840       -0.06280
H          3.58135        2.30141        0.22969
C          0.61859        1.85606       -0.04145
C         -0.84085        1.81101       -0.03320
C         -1.77864        0.78163       -0.04398
C         -3.09409        1.11907        0.10195
H         -3.51300        1.98656       -0.40762
H         -1.26523        2.81128        0.03115
H          0.97384        2.88417       -0.00546
H          0.80792       -2.59035       -0.32539
H         -5.56634        0.30108        0.09171
H         -5.26361       -1.25117        0.43124
