30
Coordinates from ORCA-job ./opt_b97-3c_parallel
N         -1.81323       -3.15670       -1.28028
C         -1.00540       -2.47107       -0.85073
C         -0.37496       -1.21572       -0.49250
C         -1.35571       -0.27895        0.04469
C         -1.46918        1.06683       -0.20410
N         -2.72599        1.51856        0.16072
C         -3.38907        0.44151        0.72558
C         -2.53408       -0.69892        0.61321
H         -2.83233       -1.70158        0.90654
N         -4.41569        0.65297        1.07392
H         -4.89808        1.55131        1.07930
H         -5.11563       -0.04544        1.32424
C         -0.70901        1.87863       -1.11108
C          0.64231        1.73978       -1.30367
C          1.39664        1.45246       -0.11788
C          2.51839        2.12510        0.24011
C          3.37788        1.25181        0.74413
C          2.92119        0.00370        0.74964
N          3.63482       -1.00187        1.28466
H          3.16740       -1.83255        1.64323
H          4.43473       -0.80447        1.88399
C          1.66845        0.08251        0.18486
C          1.00391       -0.99538       -0.40059
N          1.59713       -1.91094       -0.61544
H          2.59098       -1.68040       -0.59805
H          1.54061       -2.91503       -0.78068
H          4.35599        1.53684        1.12796
H          2.68319        3.19584        0.14273
H          1.07891        2.47819       -1.97038
H         -1.22183        2.71928       -1.57047
