35
Coordinates from ORCA-job ./opt_b97-3c_parallel
N          0.53000       -4.15250       -1.25338
C          0.25097       -3.08935       -0.94497
C         -0.08470       -1.76327       -0.49585
C          0.81818       -1.10326        0.42567
N          1.78962       -1.74037        1.01394
C          2.97449       -1.18309        0.95246
N          3.61183       -1.91002        1.49525
H          3.91434       -2.86984        1.66994
H          4.40774       -1.32455        1.75851
C          2.72803       -0.01431        0.24762
C          3.95978        0.71121        0.11193
N          3.95118        1.54230        0.89835
C          1.40076        0.08135       -0.08125
C          0.83551        1.06048       -0.98318
C          1.72084        1.77218       -1.86816
N          2.44597        2.30360       -2.57148
C         -0.40139        1.64038       -0.68546
N         -0.71073        2.64469       -1.05051
H         -1.55141        3.09109       -1.41961
H          0.06543        3.19060       -1.42939
C         -1.37607        1.08444        0.24464
C         -1.89214       -0.18141        0.27636
C         -3.21186       -0.11872        0.87227
N         -3.47520        1.14398        1.27707
C         -2.38025        1.88984        0.87167
N         -2.89416        2.80586        1.21074
H         -2.10388        3.37420        0.90664
H         -3.46418        3.40737        1.80557
N         -4.19106       -0.53778        1.17584
H         -5.02488       -0.33302        1.72968
H         -4.43867       -1.33660        0.59033
C         -1.48129       -1.34560       -0.48390
N         -2.29302       -2.01647       -0.83725
H         -2.63250       -1.72005       -1.75399
H         -2.17371       -3.02882       -0.90296
