28
Coordinates from ORCA-job ./opt_b97-3c_parallel
N         -2.69506       -4.14281        0.18436
C         -2.40748       -3.04000        0.09972
C         -2.05449       -1.65680        0.04280
C         -3.02888       -0.63748        0.27398
C         -2.41728        0.65026        0.14454
C         -3.25606        1.78534        0.38257
N         -3.91354        2.70546        0.54896
C         -1.08579        0.37730       -0.12236
C         -0.86551       -1.03190       -0.23337
N          0.24095       -1.54350       -0.64721
C          1.47297       -1.91171       -0.69069
C          2.55293       -1.13145       -0.16750
C          3.77914       -1.61494        0.14102
C          4.38349       -0.65951        0.82092
C          3.62084        0.42204        0.92937
C          2.42615        0.24030        0.26368
C          1.36085        1.06754       -0.07808
N          1.97633        2.26401        0.07289
H          2.98375        2.34853       -0.04533
H          1.54024        3.12016       -0.26484
C          0.00847        1.33413       -0.26249
C         -0.55294        2.57945       -0.74039
N         -0.72061        3.33395       -1.58523
H          3.91366        1.31790        1.47216
H          5.38012       -0.74951        1.24645
H          4.17249       -2.60156       -0.09340
H          1.53850       -2.97317       -0.97300
H         -4.07330       -0.81472        0.51321
