34
Coordinates from ORCA-job ./opt_b97-3c_parallel
N         -2.90191       -2.79892       -1.25390
C         -2.00758       -2.10690       -1.08463
C         -1.08074       -1.09967       -0.60315
C          0.23751       -1.47182       -0.33032
N          0.55174       -2.53270       -0.44705
H          0.08847       -3.39121       -0.74361
H          1.54733       -2.74915       -0.39386
C          1.26195       -0.61485        0.24590
C          2.42067       -1.14966        0.92846
C          3.46199       -0.26571        1.11257
C          2.93049        0.79871        0.42447
N          3.71771        1.57773        0.43887
H          3.46304        2.38177       -0.13188
H          4.70190        1.68860        0.67871
C          1.59453        0.66435       -0.08232
C          1.04436        1.63546       -0.89947
N          1.52125        2.51955       -1.36288
H          1.42578        3.43272       -1.80503
H          2.37591        2.10437       -1.73265
C         -0.33033        2.06888       -0.79411
C         -1.33073        1.36839       -0.04273
C         -2.45790        2.12830        0.36826
C         -3.46482        1.17490        0.71765
N         -2.98211       -0.09993        0.45555
C         -1.71227        0.05483        0.02053
N         -4.51391        1.15594        1.06138
H         -5.08369        1.96041        1.32322
H         -5.14866        0.35765        1.03359
H         -2.55938        3.20978        0.36075
H         -0.60448        3.08713       -1.08870
H          4.50795       -0.56894        0.97805
N          2.78752       -2.09328        1.37565
H          3.55997       -2.49135        1.90696
H          1.94682       -2.59521        1.65485
