26
Coordinates from ORCA-job ./opt_b97-3c_parallel
N          5.36890       -0.06664        0.95653
C          4.25053        0.01763        0.73641
C          2.85992        0.10604        0.42427
C          2.22438        1.26839        0.06208
C          0.96131        0.82256       -0.25066
C         -0.01164        1.64013       -0.93384
C         -1.37642        1.43230       -1.09652
C         -2.25854        0.56261       -0.33749
N         -3.55874        0.89020       -0.25625
C         -4.13982        0.11463        0.66189
C         -3.23518       -0.70196        1.19681
C         -2.05964       -0.50310        0.57858
C         -0.92181       -1.37444        0.57436
C         -0.17401       -1.33181       -0.64486
N         -0.21549       -2.13862       -1.39451
H         -0.68127       -3.04292       -1.43732
H          0.64513       -2.21956       -1.93229
C          0.85608       -0.52546       -0.07150
C          2.03517       -1.05027        0.34664
H          2.34221       -2.08295        0.47782
H         -0.89153       -2.22635        1.24738
H         -3.42831       -1.43986        1.97150
H         -5.18068        0.46970        0.63475
H         -1.89231        2.19520       -1.67188
H          0.38833        2.57576       -1.31252
H          2.36628        2.18158        0.63619
