26
Coordinates from ORCA-job ./opt_b97-3c_parallel
N         -6.09505       -1.06743        0.73148
C         -4.99603       -0.77309        0.62296
C         -3.63097       -0.39541        0.44064
C         -2.59139       -1.27946        0.32612
C         -1.53441       -0.46099        0.00598
C         -1.86670        0.86865        0.01616
C         -1.16387        2.08001       -0.34413
C          0.19350        2.35235       -0.47206
C          1.36345        1.55939       -0.15148
N          2.55323        2.17774       -0.04968
C          3.54539        1.36343        0.31664
C          2.95638        0.13609        0.43126
C          4.10024       -0.67297        0.71924
N          4.91223       -1.46284        0.56933
C          1.57546        0.19532        0.15289
C          0.73834       -0.93794       -0.04020
C          1.03969       -2.32184        0.16162
N          1.64043       -3.24324       -0.14941
C         -0.45051       -0.89054       -0.67797
H         -0.53280       -1.17313       -1.72581
H          4.33314        2.13153        0.28394
H          0.42127        3.38943       -0.70126
H         -1.82140        2.93833       -0.44729
C         -3.25111        0.96522        0.29026
H         -3.88292        1.84829        0.30332
H         -2.72679       -2.24399       -0.15899
