27
Coordinates from ORCA-job ./opt_b97-3c_parallel
N         -3.80080       -2.40770       -0.75299
C         -3.34153       -1.37522       -0.58796
C         -2.71926       -0.10860       -0.36255
C         -3.20852        1.15430       -0.51285
C         -2.32005        2.04424       -0.07882
C         -1.20227        1.41006        0.37765
N         -0.21550        1.84126        1.09065
C          0.82259        2.10076        0.37130
C          1.70525        1.11035       -0.17618
C          2.87066        1.34570       -0.82370
C          3.49446        0.17760       -0.92398
C          2.80456       -0.83677       -0.40281
N          3.22185       -2.11313       -0.41289
H          2.79290       -2.76702       -1.06866
H          4.22442       -2.29570       -0.47273
C          1.63790       -0.30191        0.06302
C          0.67413       -0.99626        0.89824
N         -0.64516       -1.00537        0.60794
C         -1.39522        0.01757        0.15165
N          0.57911       -2.03549        1.26116
H          0.35959       -2.66109        2.03529
H          1.53282       -2.26446        0.97208
H          4.47030        0.06511       -1.39377
H          3.23872        2.30842       -1.17288
H          0.98448        3.18145        0.23613
H         -2.46533        3.12267       -0.08760
H         -4.18458        1.39871       -0.92714
