34
Coordinates from ORCA-job ./opt_b97-3c_parallel
N         -3.44689       -3.76274       -0.82564
C         -3.18055       -2.66300       -0.67280
C         -2.89777       -1.27700       -0.47134
C         -3.68622       -0.15997       -0.58409
N         -3.12672        1.00207       -0.21088
C         -1.82949        0.66488        0.17309
C         -1.67388       -0.75336        0.04239
C         -0.66447       -1.57916        0.62472
C          0.20805       -1.04742        1.51134
C          1.22279       -0.72481        0.67047
C          1.40065        0.53708        0.18048
C          0.52193        1.69707        0.38135
N          1.11544        2.63786        0.35875
H          0.92288        3.63650        0.43107
H          2.11740        2.52898        0.51553
C         -0.88444        1.72138        0.53991
C         -1.47723        3.02066        0.77366
N         -1.98740        4.02810        0.94388
C          2.70834        0.60826       -0.43758
C          3.27825       -0.65241       -0.33574
C          4.56245       -1.13763       -0.76583
N          5.59414       -1.52070       -1.07464
C          2.37683       -1.52734        0.37476
N          2.47014       -2.57937        0.70697
H          3.45362       -2.71222        0.47428
H          2.21914       -3.33859        1.33764
N          3.32241        1.37728       -0.94992
H          3.01314        2.22227       -1.42701
H          4.33301        1.32408       -1.07721
H          0.40540       -1.53400        2.46464
H         -0.74582       -2.65756        0.51755
N         -4.69243        0.21547       -0.85061
H         -5.44216       -0.47073       -0.94543
H         -5.12624        1.12560       -1.01003
