27
Coordinates from ORCA-job ./opt_b97-3c_parallel
N         -1.00057       -4.32130       -0.01431
C         -0.53778       -3.27804       -0.01337
C         -0.00884       -1.94731       -0.01208
C          1.42023       -1.87351       -0.00979
C          2.26389       -0.70304       -0.00843
C          2.18053        0.68500       -0.00892
C          1.22210        1.69190       -0.01111
C         -0.16646        1.74622       -0.01320
C         -0.57349        3.12802       -0.01474
N         -1.17791        4.09775       -0.01285
C         -1.12961        0.67215       -0.01343
N         -2.41987        1.05003       -0.01438
C         -3.26138       -0.02663       -0.01412
C         -2.24306       -0.92023       -0.01295
C         -0.75352       -0.71291       -0.01233
H         -2.58258       -1.95127       -0.01249
N         -4.35903        0.08482       -0.01507
H         -4.86300        0.97143       -0.01585
H         -5.07189       -0.64548       -0.01600
H          1.69132        2.67697       -0.01126
C          3.48112        1.13789       -0.00683
C          4.35286        0.14232       -0.00467
C          3.65548       -1.01066       -0.00533
H          4.06695       -2.01563       -0.00470
H          5.43669        0.23629       -0.00300
H          3.78443        2.18356       -0.00681
H          1.93979       -2.82922       -0.00869
