24
Coordinates from ORCA-job ./opt_b97-3c_parallel
N          0.77771        2.53991       -0.16601
C          0.65416        1.44873       -0.28426
C         -0.52652        1.22233       -0.92704
C         -1.53966        0.63137       -0.23069
N         -2.59243        1.20307        0.30155
C         -3.30615        0.21544        0.73143
C         -2.80000       -0.97685        0.53111
C         -1.63279       -0.74762       -0.09631
N         -0.86023       -1.76924       -0.52228
C          0.37464       -1.45102       -1.06485
C          1.37772       -0.97727       -0.14865
C          2.53991       -1.59271        0.19419
C          3.33737       -0.66673        0.72147
C          2.77905        0.54052        0.72480
C          1.55887        0.41123        0.14062
H          3.22467        1.45889        1.09910
H          4.33294       -0.87368        1.10630
H          2.76690       -2.65026        0.08230
H          0.55992       -2.51268       -1.28621
H         -3.22952       -1.93592        0.81049
H         -4.26942        0.40508        1.22756
H         -0.57718        1.27180       -2.01261
H          1.74226        2.86059       -0.11702
H          0.19138        3.29399        0.18709
