32
Coordinates from ORCA-job ./opt_b97-3c_parallel
N          2.10823        4.32182        0.30718
C          2.02774        3.18530        0.21665
C          1.92676        1.76338        0.06073
C          3.06546        0.88243       -0.05221
C          2.53499       -0.44722       -0.23839
C          3.39798       -1.58663       -0.33220
N          4.09190       -2.49538       -0.36353
C          1.16713       -0.32575       -0.20335
C          0.76698        1.03335       -0.01428
N         -0.46133        1.43123        0.00571
C         -1.74182        1.60014       -0.00362
C         -2.69171        0.52097       -0.00143
C         -4.05309        0.67927        0.03767
C         -4.56240       -0.58875        0.05916
C         -3.59197       -1.49723        0.01832
C         -2.37956       -0.87605       -0.00573
C         -1.10473       -1.38390        0.02007
N         -1.09922       -1.69985        1.33451
H         -0.40161       -2.35300        1.68638
H         -1.97801       -1.91559        1.80196
C          0.22318       -1.41893       -0.32426
C          0.46139       -2.76119       -0.78299
N          0.67899       -3.32888       -1.74937
H         -3.74357       -2.57320        0.04137
H         -5.62281       -0.83247        0.11666
N         -4.73673        1.54545        0.07021
H         -4.41049        2.39305       -0.38995
H         -5.60551        1.78303        0.54560
H         -1.83278        2.69612        0.00150
N          4.12562        1.20053        0.00482
H          4.84184        0.58436        0.38521
H          4.30582        2.13097        0.37860
