32
Coordinates from ORCA-job ./opt_b97-3c_parallel
N          5.62696        0.35663        0.49015
C          4.49923        0.30534        0.31473
C          3.07218        0.28052        0.09200
C          2.20375        1.31203       -0.20003
N          2.63390        2.33213       -0.28415
H          3.65092        2.41022       -0.29466
H          2.27512        3.21990       -0.62978
C          0.92685        0.80798       -0.31680
C         -0.09442        1.76119       -0.67843
C         -1.45412        1.73815       -0.50987
C         -2.32505        0.72864        0.00424
N         -3.58059        0.92613        0.23630
C         -4.46816        0.01525        0.47906
C         -3.66018       -1.04873        0.20834
C         -2.38157       -0.63785       -0.02843
C         -1.42196       -1.63500       -0.41312
C         -0.02888       -1.60062       -0.39043
N          0.20430       -2.68015       -0.49973
H         -0.06229       -3.66187       -0.56146
H          1.15909       -2.62409       -0.85356
C          0.95911       -0.55630       -0.14722
C          2.27444       -0.93061        0.11630
N          2.81349       -1.88217        0.31405
H          2.27670       -2.57331        0.83496
H          3.77010       -1.92698        0.66097
H         -1.94873       -2.58909       -0.55649
H         -3.87088       -2.03206        0.62605
N         -5.50970        0.26770        0.74322
H         -6.22862       -0.42119        0.96330
H         -5.95602        1.18030        0.83180
H         -1.93648        2.70009       -0.66077
H          0.28620        2.74032       -0.95357
