29
Coordinates from ORCA-job ./opt_b97-3c_parallel
N          1.82159        3.83592       -0.59271
C          1.43733        2.78498       -0.35878
C          0.92171        1.47940       -0.05179
C          1.72318        0.80961        0.81357
C          2.43862        0.04608       -0.04697
C          2.08274       -1.29684       -0.33079
C          0.98539       -1.96751        0.16682
C         -0.33238       -1.40471        0.46988
C         -1.06103       -2.54200        0.95712
N         -1.62240       -3.51148        1.18651
C         -0.94265       -0.20912        0.06325
C         -0.41352        1.06233       -0.38963
C         -1.31987        1.95886       -0.90342
C         -2.44949        1.25371       -0.58833
C         -2.30332       -0.05240       -0.02084
C         -3.53774       -0.74523        0.21361
N         -4.39616       -1.35666       -0.22901
N         -3.28623        1.90627       -0.91004
H         -3.69083        2.83067       -0.77179
H         -4.06541        1.25617       -1.00549
H         -1.22799        3.02655       -0.69120
H          1.11443       -3.04619        0.26076
C          3.19091       -1.93900       -0.78302
C          4.15955       -1.03528       -0.83735
C          3.74300        0.15605       -0.42606
H          4.34719        1.05960       -0.37611
H          5.17096       -1.24491       -1.17700
H          3.26854       -2.98759       -1.06235
H          2.19514        1.30181        1.66161
