29
Coordinates from ORCA-job ./opt_b97-3c_parallel
N          4.20590        2.39115       -0.89089
C          3.58066        1.47335       -0.62866
C          2.82972        0.30941       -0.27533
C          3.20548       -0.99231       -0.04920
N          2.22721       -1.83417        0.32905
C          1.08172       -1.04723        0.36559
C          1.42980        0.29981        0.01178
C          0.65489        1.49863        0.12145
C         -0.48398        1.51520        0.84709
C         -1.63502        1.21977        0.20740
C         -2.68078        2.13512       -0.15527
N         -3.78518        1.45249       -0.54213
C         -3.45063        0.11505       -0.41066
N         -4.45393       -0.23292       -0.72196
H         -5.42703       -0.02554       -0.49295
H         -4.45478       -1.17687       -1.10836
C         -2.10039       -0.04028        0.03076
C         -1.51113       -1.33431        0.33579
N         -2.17645       -2.22004        0.33782
H         -2.59651       -2.49233        1.22807
H         -2.01574       -3.09002       -0.17229
C         -0.18852       -1.73020        0.58587
H         -0.01390       -2.78252        0.82226
H         -2.98234        3.19329       -0.20085
H         -0.50276        1.98296        1.82973
H          1.12160        2.43886       -0.15860
N          4.12283       -1.61260       -0.06528
H          4.37560       -2.60146       -0.05540
H          5.01007       -1.10651       -0.09412
