30
Coordinates from ORCA-job ./opt_b97-3c_parallel
N          5.73703        0.83217        0.01498
C          4.61224        0.64003       -0.03932
C          3.19162        0.43698       -0.11235
C          2.39192        1.51796       -0.28626
C          1.12785        0.97989       -0.26663
C          0.08401        1.95845       -0.42687
C         -1.28513        1.93668       -0.36538
C         -2.21767        0.88475       -0.11185
C         -3.56891        1.31377       -0.00279
C         -4.33570        0.13065        0.22081
N         -3.51283       -0.93189        0.21914
C         -2.21415       -0.47252        0.02429
C         -1.22963       -1.51325       -0.04464
C          0.16135       -1.46400       -0.12327
N          0.39714       -2.55041       -0.11486
H          1.35508       -2.57911       -0.46217
H          0.04924       -3.50514       -0.18917
C          1.16803       -0.40298       -0.13896
C          2.49014       -0.80398       -0.03493
N          3.12783       -1.70442        0.08844
H          4.14562       -1.71736        0.03730
H          2.87285       -2.10496        0.98932
H         -1.74649       -2.48202        0.02197
N         -5.39377       -0.13941        0.38265
H         -5.77626       -1.07050        0.54570
H         -6.16491        0.51232        0.52616
H         -3.94629        2.33031       -0.06771
H         -1.73919        2.91723       -0.48243
H          0.48534        2.95786       -0.57876
H          2.66540        2.29439       -0.99886
