28
Coordinates from ORCA-job ./opt_b97-3c_parallel
N         -3.39796       -3.69077       -0.50599
C         -2.99702       -2.62266       -0.44492
C         -2.46945       -1.29861       -0.33027
C         -3.27551       -0.19990       -0.35025
C         -2.40381        0.81885       -0.02232
C         -3.27021        1.96438       -0.04344
N         -3.21031        2.78159       -0.84291
C         -1.08355        0.42973        0.16011
C         -1.11509       -0.98329       -0.03793
C         -0.12606       -1.98882        0.21401
C          1.02925       -1.70953        0.85254
C          2.00460       -1.21591        0.05770
C          2.20112        0.17127       -0.07848
C          1.36997        1.27842        0.31681
C         -0.02545        1.30403        0.43675
C         -0.29779        2.67992        0.75076
N         -0.30482        3.41949        1.62256
H          1.94493        2.20115        0.40329
C          3.56431        0.33591       -0.43014
N          4.02623       -0.96353       -0.55714
C          3.12583       -1.91030       -0.30040
H          3.57717       -2.90558       -0.43684
N          4.37603        1.06193       -0.61540
H          5.39578        1.05513       -0.62898
H          4.10155        2.04337       -0.65244
H          1.27155       -2.20403        1.79112
H         -0.40213       -3.02540        0.04334
H         -4.03130       -0.09869       -1.13109
