30
Coordinates from ORCA-job ./opt_b97-3c_parallel
N          2.29386        3.54246        1.15759
C          1.77768        2.54916        0.93651
C          1.18186        1.28036        0.62674
C          1.94046        0.27797       -0.09045
C          1.69124       -1.12563       -0.08238
N          0.85886       -1.82632        0.70695
C         -0.42568       -1.62539        1.02727
N         -0.24251       -2.59143        1.52615
H         -0.08100       -3.58562        1.68775
H         -1.11511       -2.36593        2.00334
C         -1.25582       -0.76526        0.24510
C         -2.59442       -1.17917       -0.00858
C         -3.31527       -0.02171       -0.45027
C         -4.70871       -0.13537       -0.75946
N         -5.82481       -0.24214       -0.97536
C         -2.45461        1.06245       -0.39843
N         -2.79380        2.09031       -0.62134
H         -3.79295        2.12452       -0.41666
H         -2.58517        2.94191       -1.14109
C         -1.16816        0.57853        0.03041
C         -0.17383        1.52907        0.45825
H         -0.54602        2.54809        0.58053
H         -3.01118       -2.16751        0.16219
N          2.85555       -1.70843       -0.52166
C          3.73081       -0.69056       -0.86937
N          4.73726       -0.99328       -1.21735
H          5.55997       -0.39320       -1.12869
H          5.08116       -1.85285       -1.64995
C          3.19809        0.53533       -0.56035
H          3.40060        1.40989       -1.17739
