28
Coordinates from ORCA-job ./opt_b97-3c_parallel
N         -2.69473       -2.41510       -0.68700
C         -2.18003       -1.45842       -0.46087
N         -3.07669       -0.39294       -0.61857
C         -2.42419        0.73506       -0.25702
N         -3.29235        1.40508       -0.43909
H         -3.38299        2.09097       -1.19466
H         -4.20919        1.41884        0.01857
C         -1.11825        0.51923        0.11348
C         -0.94789       -0.89280        0.01316
C          0.13562       -1.68868        0.50307
C          1.15035       -1.13036        1.20803
C          2.00336       -0.63066        0.27626
C          2.02866        0.73575       -0.15054
N          1.12338        1.64072        0.29390
C         -0.20361        1.56208        0.57449
N         -0.01439        2.62843        0.81897
H          0.29839        3.49889        0.37811
H          0.12685        2.78963        1.82053
C          3.23999        0.92505       -0.74066
C          3.88567       -0.23123       -0.73005
C          3.17276       -1.18404       -0.14583
H          3.48575       -2.21764       -0.00604
H          4.88041       -0.38079       -1.14611
H          3.61524        1.85824       -1.15633
H          1.53455       -1.61226        2.10618
H          0.06081       -2.76944        0.40880
H         -2.23905       -3.30936       -0.48681
H         -3.60591       -2.68291       -1.06896
