29
Coordinates from ORCA-job ./opt_b97-3c_parallel
N         -1.95841       -3.28135       -0.39680
C         -1.30160       -2.35343       -0.28319
C         -0.51286       -1.15810       -0.13104
C          0.79466       -1.63257       -0.17558
C          2.09008       -1.00356       -0.15375
C          2.48865        0.36609        0.02610
C          1.94698        1.60472        0.27875
C          0.59874        2.04946        0.39694
C         -0.58859        1.38837        0.23627
N         -1.82519        1.76614        0.26157
C         -3.07186        1.43915        0.11433
N         -3.63320        2.38750        0.24050
H         -4.48613        1.87748        0.00305
H         -3.92860        3.33767        0.46288
C         -2.50600        0.19276       -0.06250
C         -3.76603       -0.48044       -0.24914
N         -4.78814       -0.71734       -0.70452
C         -1.12706        0.14968        0.00992
H          0.53277        3.11402        0.60167
H          2.64572        2.42615        0.41087
C          3.91547        0.26805       -0.07497
C          4.29606       -1.02066       -0.27812
C          3.20841       -1.77292       -0.31577
H          3.21560       -2.85159       -0.45838
H          5.31540       -1.39410       -0.38229
N          4.78379        0.94987       -0.03035
H          5.77489        0.77607       -0.19124
H          4.60603        1.90819       -0.32314
H          0.93514       -2.70977       -0.29537
