26
Coordinates from ORCA-job ./opt_b97-3c_parallel
N         -4.03395       -2.65298        0.18292
C         -3.36397       -1.72889        0.14648
C         -2.55489       -0.55407        0.06909
C         -3.11148        0.75658        0.27327
N         -2.18205        1.71368        0.08195
C         -1.03279        1.01309       -0.22451
N          0.02156        1.62639       -0.62180
C          1.10365        1.91223        0.00860
C          2.07263        0.90341        0.26660
C          3.40360        1.16573        0.69499
C          4.22731        0.06789        0.67889
C          3.37962       -0.90820        0.20222
N          3.84022       -1.90731        0.11637
H          3.33993       -2.76410        0.34740
H          4.83065       -2.11071        0.24643
C          2.04191       -0.47078       -0.05332
C          1.03629       -1.37613       -0.56871
N         -0.36195       -1.37811       -0.53754
C         -1.22599       -0.39391       -0.20493
H          1.15006       -2.44081       -0.82525
H          5.25205        0.15704        0.31729
H          3.73981        2.17516        0.91127
H          1.38312        2.95063        0.24520
N         -4.03058        1.32244        0.50316
H         -4.58879        2.12268        0.80015
H         -4.67715        0.53746        0.43019
