30
Coordinates from ORCA-job ./opt_b97-3c_parallel
N         -1.98830       -3.18680        1.30428
C         -1.33683       -2.32332        0.93557
C         -0.56150       -1.20406        0.44795
C         -1.31979        0.02248        0.18967
N         -2.69277       -0.00489        0.13324
C         -3.06077        1.26697       -0.27268
C         -2.02318        2.13137       -0.53086
C         -0.96155        1.36437       -0.15237
C          0.31471        1.94992        0.15225
C          1.17628        1.16995        0.98689
N          1.41898        1.59427        1.97270
H          2.32708        1.13302        1.91349
H          1.58022        2.47327        2.46351
C          1.82802        0.78166       -0.22748
C          3.04259        1.18870       -0.68777
C          3.62325        0.14528       -1.26411
C          2.86067       -0.94003       -1.20707
C          1.70577       -0.60020       -0.54932
C          0.75136       -1.46753       -0.00016
N          1.14255       -2.51150       -0.02286
H          2.11530       -2.59051        0.27169
H          0.75114       -3.45202        0.02365
H          3.11710       -1.91316       -1.62121
H          4.60490        0.17533       -1.73051
H          3.45928        2.19038       -0.60532
H          0.47892        3.00369       -0.06522
H         -2.08541        3.17718       -0.23528
N         -4.16200        1.22281       -0.35467
H         -4.82941        1.99282       -0.30870
H         -4.70465        0.39667       -0.60794
