29
Coordinates from ORCA-job ./opt_b97-3c_parallel
N         -2.46961       -3.17141       -0.31889
C         -1.70546       -2.33251       -0.20210
C         -0.73379       -1.28698       -0.10971
C          0.62586       -1.78056       -0.27836
C          1.84982       -1.09724        0.05923
C          3.05252       -1.87893        0.08058
N          3.96427       -1.08114        0.63036
C          3.37839        0.07863        0.93051
N          4.30087        0.52733        1.35624
H          4.78021        1.40871        1.15908
H          4.93256        0.03638        1.99508
C          1.97129        0.23609        0.59199
C          1.74950        0.85981       -0.68781
N          0.63224        1.51154       -1.02580
C         -0.56484        1.34151       -0.43264
N         -1.49392        2.36709       -0.42514
C         -2.67830        1.88479        0.10256
N         -3.46506        2.66419        0.16675
H         -4.41630        2.28841        0.11682
H         -3.59505        3.66243        0.34769
C         -2.52290        0.48500        0.38551
C         -3.57670       -0.29885        0.95195
N         -4.43912       -0.88372        1.41705
C         -1.16749        0.11431        0.03239
N          2.18214        1.46518       -1.50560
H          2.44692        2.44550       -1.61831
H          2.46773        1.00319       -2.37018
H          3.50605       -2.86319       -0.11977
H          0.73429       -2.83784       -0.51390
