25
Coordinates from ORCA-job ./opt_b97-3c_parallel
N          3.58102        1.98282        1.37834
C          2.99877        1.06967        1.01673
C          2.28760       -0.06607        0.52492
C          2.64127       -1.35891        0.77809
N          1.76652       -2.05655        0.06189
C          0.84968       -1.29993       -0.64751
N         -0.14043       -1.55920       -1.44520
C         -1.31954       -1.69261       -0.92430
C         -1.99584       -0.71222       -0.11182
C         -3.08274       -0.92572        0.67069
C         -3.32156        0.21565        1.30096
C         -2.45249        1.16352        0.96552
C         -1.58111        0.65735        0.04427
C         -0.72140        1.39204       -0.74208
N         -1.34448        2.41108       -1.35381
H         -2.27191        2.70685       -1.05004
H         -0.82809        3.24535       -1.63082
C          0.58533        1.15848       -0.86661
C          1.16351        0.04441       -0.33236
H          1.18868        1.81037       -1.49614
H         -2.45110        2.18163        1.34987
H         -4.13679        0.36128        2.00705
H         -3.65239       -1.84818        0.76312
H         -1.73114       -2.71314       -0.95871
H          3.48193       -1.64788        1.42851
