27
Coordinates from ORCA-job ./opt_b97-3c_parallel
N         -3.25086       -2.49863        0.37842
C         -2.35171       -1.80684        0.23137
C         -1.18097       -0.96015        0.06986
C         -1.49575        0.45280        0.11049
C         -0.85374        1.62768        0.02228
N          0.40007        1.79122        0.16940
C          1.60881        1.42916        0.35797
N          1.92857        2.44160        0.65540
H          2.45984        1.78251        1.22098
H          1.56228        3.14588        1.29318
C          2.14556        0.16845       -0.03692
C          3.48072       -0.03737       -0.16782
C          3.64388       -1.27846       -0.58635
C          2.48590       -1.91019       -0.70731
C          1.45130       -1.06606       -0.34459
C          0.10529       -1.50774       -0.19022
N          0.06490       -2.61683       -0.31483
H         -0.71919       -3.26756       -0.30033
H          0.78966       -3.02011        0.27611
H          2.39698       -2.93203       -1.07323
H          4.60921       -1.72336       -0.81541
H          4.26766        0.69464       -0.00121
C         -1.74160        2.58984       -0.12300
C         -3.01765        2.23442       -0.13683
N         -2.79143        0.94139        0.01863
H         -4.06462        2.56428       -0.21040
H         -1.44592        3.63381       -0.19960
