29
Coordinates from ORCA-job ./opt_b97-3c_parallel
N         -4.31480       -1.16102       -1.37045
C         -3.56479       -0.37203       -1.02399
C         -2.61970        0.62634       -0.63085
C         -2.84229        1.96775       -0.67040
C         -1.79141        2.61712       -0.18234
C         -0.80400        1.74099        0.16039
C          0.09027        1.96860        1.27142
C          1.50150        1.92290        0.96427
C          2.06473        0.98075        0.02984
C          1.54632       -0.34393       -0.04744
C          2.46756       -0.96935       -0.93143
N          3.42063       -0.00576       -1.20778
C          3.25146        1.17214       -0.61534
H          3.88606        2.06789       -0.67527
N          2.88614       -1.83248       -1.47725
H          3.66757       -2.29484       -1.94108
H          2.36674       -2.56169       -0.98916
C          0.58580       -0.94354        0.71662
N          1.24130       -1.81261        1.51203
H          0.73387       -2.61753        1.88343
H          1.82326       -1.46545        2.27350
C         -0.70489       -0.83789        0.29128
C         -1.34546       -2.11760        0.22158
N         -1.83008       -3.15202        0.20702
C         -1.31442        0.41904       -0.07216
H          2.11594        2.74599        1.31906
H         -0.15638        2.83062        1.88640
H         -1.71374        3.70004       -0.11213
H         -3.75361        2.43832       -1.03454
