24
Coordinates from ORCA-job ./opt_b97-3c_parallel
N         -3.41747       -1.98908        0.18209
C         -2.72603       -1.13992        0.03507
N         -2.85431        0.12717        0.30431
C         -2.70614        1.40076        0.49963
C         -1.41238        0.84219        0.05109
C         -1.44396       -0.52587       -0.19089
C         -0.27362       -1.27052       -0.60440
N          0.82291       -1.25160       -0.43744
C          1.79212       -0.78992       -0.13104
C          2.94295       -1.43779       -0.00217
C          4.02051       -0.77591        0.39473
N          3.20916        0.26040        0.42500
C          1.88169        0.54159        0.16836
N          1.04403        1.53579        0.18580
C         -0.21644        1.64696       -0.10642
N         -0.17100        2.67287       -0.51271
H          0.48495        3.44524       -0.38971
H         -0.94706        3.05707       -1.05106
H          5.08496       -0.69668        0.66525
H          3.01415       -2.50481       -0.21239
H         -0.49901       -2.18967       -1.16950
H         -3.13923        2.36953        0.79715
H         -4.43856       -1.96999        0.20747
H         -3.16557       -2.97383        0.27748
