29
Coordinates from ORCA-job ./opt_b97-3c_parallel
N         -1.44262       -3.01534       -1.67805
C         -1.08683       -2.20200       -0.95761
C         -0.60243       -1.16920       -0.08320
C         -1.42862       -0.01714        0.18953
C         -1.05991        1.20694        0.67450
N          0.09644        1.74415        0.86396
C          1.03890        1.74996       -0.02315
C          1.81853        0.57283       -0.26880
C          3.10087        0.73297       -0.68793
N          3.86527       -0.25352       -0.21335
C          3.00068       -1.03902        0.55540
C          1.70642       -0.64039        0.32854
C          0.63964       -1.43721        0.46490
N          0.69922       -2.61910        1.11521
H         -0.12308       -3.22165        1.14354
H          1.51410       -3.22307        1.02627
H          3.40211       -1.92123        1.07744
N          3.99004        1.25606       -1.08947
H          3.80187        2.17467       -1.49006
H          4.99982        1.12505       -1.16024
H          0.96474        2.83750       -0.17560
C         -2.20598        1.95650        0.70894
C         -3.25744        1.28528        0.24061
N         -4.51217        1.75613        0.20249
H         -4.69807        2.75735        0.19076
H         -5.23268        1.28437       -0.34156
C         -2.81242        0.05709       -0.12798
H         -3.39955       -0.75301       -0.55006
H         -2.25929        2.96977        1.10363
