32
Coordinates from ORCA-job ./opt_b97-3c_parallel
N         -3.99773       -3.14576        1.06321
C         -3.50859       -2.14352        0.81423
C         -2.90517       -0.89699        0.45811
C         -3.64044        0.15586       -0.02332
C         -2.69401        1.08326       -0.40116
C         -3.26709        2.31270       -0.86207
N         -3.29545        3.42814       -0.62569
C         -1.41567        0.63756       -0.17352
C         -1.50095       -0.66873        0.37648
C         -0.49497       -1.67586        0.63080
C          0.70130       -1.75015       -0.02354
C          1.85627       -1.02188       -0.02339
C          3.09654       -1.55240       -0.28240
C          3.96815       -0.49957       -0.31056
C          3.34833        0.65684       -0.09905
N          3.96984        1.84720       -0.08947
H          4.89670        1.94519       -0.49857
H          3.44496        2.69794       -0.28337
C          2.02508        0.38475        0.08284
C          0.94323        1.18549        0.27236
N          1.05740        2.08895        1.26079
H          1.98433        2.32588        1.61162
H          0.51553        2.95018        1.22431
C         -0.25077        1.47070       -0.31308
H         -0.40941        2.45173       -0.75194
H          5.03842       -0.58551       -0.49611
N          3.53123       -2.54501       -0.49633
H          4.42318       -2.93621       -0.79324
H          2.80306       -3.06561       -0.98068
H          0.76546       -2.64433       -0.63947
H         -0.85759       -2.58813        1.09386
H         -4.56814        0.45409        0.46253
