25
Coordinates from ORCA-job ./opt_b97-3c_parallel
N         -5.86588       -0.20655        0.04415
C         -4.72585       -0.13494        0.08164
C         -3.30131       -0.04224        0.08638
C         -2.42430       -1.07990        0.13420
C         -1.18591       -0.47654        0.07821
C         -1.30121        0.90265        0.03207
C         -0.45819        1.99042       -0.00966
C          0.89941        2.17265       -0.00944
C          1.96216        1.30034        0.00193
N          3.08867        1.97510       -0.00286
C          4.00487        1.07207       -0.01272
C          3.56076       -0.15673       -0.01404
C          2.20953       -0.06022        0.00115
C          1.31443       -1.19302        0.01759
C          1.91780       -2.49741        0.00300
N          2.41973       -3.52455       -0.00830
C         -0.05827       -1.37462        0.06486
H         -0.41166       -2.40598        0.09473
H          4.16957       -1.05784       -0.02204
H          5.07352        1.33402       -0.01943
H          1.16039        3.23026       -0.02577
H         -0.97809        2.94470       -0.03632
C         -2.63477        1.20008        0.03125
H         -3.12594        2.16807       -0.00907
H         -2.63319       -2.00777       -0.39444
