29
Coordinates from ORCA-job ./opt_b97-3c_parallel
N         -2.24372       -3.47511       -0.52002
C         -1.72777       -2.45750       -0.45857
C         -1.08040       -1.19395       -0.22626
C          0.26683       -1.45681       -0.05911
C          1.40306       -0.59418        0.12988
C          1.71738        0.73007       -0.10289
C          3.08807        0.80228       -0.03514
C          3.63191       -0.36519        0.26135
C          2.63921       -1.28286        0.36433
N          3.06603       -2.28696        0.54232
H          2.32282       -2.78740        1.02507
H          3.94053       -2.74927        0.78266
H          4.70286       -0.54193        0.36741
H          3.66940        1.70799       -0.18982
C          0.89182        1.84262       -0.50535
C         -0.42320        2.17416       -0.01346
C         -1.50976        1.30437        0.33170
C         -2.74853        1.93386        0.64907
C         -3.76171        1.03669        0.63432
C         -3.26252       -0.14314        0.29556
C         -1.90340       -0.05798        0.11443
H         -3.86454       -1.04262        0.18971
H         -4.80847        1.25405        0.83230
H         -2.88000        3.00622        0.75640
H         -0.69988        3.23007        0.02189
N          1.36362        2.80570       -0.78195
H          2.21690        2.76996       -1.33564
H          0.85878        3.64227       -1.06754
H          0.57137       -2.50262       -0.06838
