23
Coordinates from ORCA-job ./opt_b97-3c_parallel
N          4.38027        1.82865       -0.06528
C          3.48509        1.12014       -0.00769
C          2.39202        0.20380        0.07837
C          2.57878       -1.14353        0.51666
C          1.49428       -1.97961        0.47324
C          0.57560       -1.06922        0.02724
N         -0.13112       -1.69573       -0.93334
C         -1.50753       -1.52757       -0.90454
C         -2.12268       -0.56624       -0.03692
C         -3.48958       -0.64691        0.34375
C         -3.89137        0.58292        0.76600
C         -2.88389        1.44291        0.64115
C         -1.78450        0.80998        0.13689
C         -0.93341        1.40668       -0.85704
N          0.44334        1.22996       -0.92522
C          1.06978        0.24908       -0.24576
H         -0.45872        2.18742       -1.46985
H         -2.93341        2.50002        0.89169
H         -4.88779        0.82811        1.12582
H         -4.12572       -1.49606        0.11440
H         -1.04215       -2.26998       -1.56892
H          1.26936       -2.64214        1.30528
H          3.56969       -1.48245        0.80366
