28
Coordinates from ORCA-job ./opt_b97-3c_parallel
N         -3.01164       -2.16818       -0.62784
C         -2.52722       -0.95461       -0.32220
C         -3.27124        0.14623       -0.26629
C         -2.57993        1.23254        0.05826
C         -1.27551        0.86953        0.21298
C         -1.27222       -0.55132        0.02158
C         -0.25412       -1.41164        0.54053
C          0.72673       -0.94035        1.34721
C          1.66743       -0.75760        0.38995
C          2.77289       -1.60434        0.09354
C          3.65353       -0.89926       -0.65696
C          3.16312        0.32173       -0.82541
C          1.93777        0.43644       -0.22826
C          1.19979        1.65554       -0.00471
C         -0.14933        1.79581        0.34156
N         -0.38089        2.87347        0.44271
H         -1.30099        3.11637        0.80325
H         -0.01770        3.69751       -0.03170
H          1.78571        2.55188       -0.21268
H          3.66139        1.11769       -1.37380
H          4.61044       -1.26029       -1.02564
H          2.94196       -2.56471        0.56992
H          0.96759       -1.43846        2.28259
H         -0.42948       -2.48082        0.46622
H         -2.98910        2.23466        0.15985
H         -4.34061        0.16074       -0.46520
H         -3.91317       -2.25838       -1.09209
H         -2.39233       -2.88949       -0.99149
