30
Coordinates from ORCA-job ./opt_b97-3c_parallel
N          5.19786        0.76149        1.38599
C          4.38096        0.38788        0.68281
C          3.32175       -0.07370       -0.16365
C          3.56439       -1.36580       -0.52094
N          2.37804       -1.85779       -0.23211
C          1.29534       -1.16413        0.25994
N          0.13478       -1.72330        0.40807
C         -1.14852       -1.60619        0.27089
N         -1.31995       -2.67018        0.50487
H         -1.13301       -3.59482        0.11394
H         -1.94055       -2.82412        1.29955
C         -1.80441       -0.37104       -0.08428
C         -3.22746       -0.33341       -0.22891
N         -3.47582        0.91583       -0.61216
C         -2.31587        1.57191       -0.69131
N         -2.70080        2.56617       -0.99451
H         -3.64232        2.95370       -0.89811
H         -2.14101        3.32890       -1.37859
C         -1.09136        0.87434       -0.32808
C          0.05606        1.36081        0.41288
N         -0.12503        2.19903        1.10911
H          0.71221        2.77397        1.21849
H         -0.87648        2.74533        1.53086
C          1.38769        1.20219        0.10469
C          1.98227        0.00197        0.07892
H          2.00105        2.08805       -0.06701
N         -4.18712       -0.87369       -0.18108
H         -5.17103       -0.63511       -0.30691
H         -4.17165       -1.86147        0.07266
H          4.46988       -1.85118       -0.91939
