25
Coordinates from ORCA-job ./opt_b97-3c_parallel
N         -3.16469       -1.72853       -0.35363
C         -2.39799       -0.95029       -0.16791
N         -3.32295        0.05469       -0.33698
C         -2.71098        1.20558       -0.16352
C         -1.43307        0.77108        0.01993
C         -1.04711       -0.60930        0.20166
C         -0.44079       -1.71915        0.89738
C          0.96714       -1.99678        0.70965
C          1.92753       -1.05318        0.17928
N          3.17069       -1.38401       -0.05257
C          3.69947       -0.25297       -0.38657
C          2.89757        0.78689       -0.37792
C          1.70265        0.30052        0.01767
N          0.90250        1.31066        0.11815
C         -0.32966        1.69061        0.01767
N         -0.13294        2.77065       -0.07159
H         -0.61531        3.23121        0.69750
H          0.73907        3.28082       -0.20770
H          3.16593        1.81366       -0.62652
H          4.75656       -0.46268       -0.60632
H          1.33199       -2.97592        1.00636
H         -1.02484       -2.50047        1.37448
H         -3.03352        2.25727       -0.21420
H         -4.17172       -1.89007       -0.35813
H         -2.72971       -2.65005       -0.37934
