30
Coordinates from ORCA-job ./opt_b97-3c_parallel
N          5.00418        1.39692        0.59384
C          4.26736        0.53242        0.48402
C          3.28729       -0.49772        0.34237
C          3.41330       -1.83526        0.11035
C          2.21512       -2.40735        0.03048
C          1.23443       -1.47555        0.20365
N         -0.04814       -1.63550        0.31241
C         -1.31781       -1.47365        0.13220
N         -1.54542       -2.55077        0.15697
H         -1.57284       -3.01023        1.06878
H         -1.24137       -3.26891       -0.50232
C         -1.88953       -0.17095       -0.06491
C         -3.21146       -0.07795       -0.39878
N         -3.50738        1.18618       -0.67896
C         -2.28418        1.81941       -0.47469
N         -2.61962        2.83063       -0.79762
H         -3.28321        3.47497       -0.35616
H         -2.44268        3.24899       -1.71658
C         -1.23339        1.03582       -0.01873
C          0.04901        1.30086        0.41539
N          1.34860        1.00588        0.61660
C          1.88854       -0.21706        0.38581
N          0.45615        2.21960        0.89637
H          1.09130        2.95486        0.56692
H          0.52615        2.27595        1.91866
N         -4.15694       -0.63065       -0.58681
H         -4.11859       -1.62704       -0.35248
H         -5.09810       -0.50198       -0.96969
H          2.04407       -3.46592       -0.15408
H          4.36051       -2.35941       -0.00166
