30
Coordinates from ORCA-job ./opt_b97-3c_parallel
N         -4.86696       -2.14847       -0.08240
C         -4.07411       -1.34144        0.06369
C         -3.03589       -0.36754        0.26017
C         -3.27521        0.80796        1.03058
N         -2.19842        0.87355        0.74171
C         -1.15106        0.87078        0.35966
C         -1.73246       -0.27077       -0.13246
C         -1.18889       -1.22628       -0.97078
C          0.12040       -1.64650       -1.08164
C          1.20430       -1.22930       -0.22183
C          1.60464        0.06948        0.21966
C          2.91887       -0.10251        0.78580
N          3.26318       -1.40457        0.69148
C          2.24049       -2.08923        0.04115
N          2.60309       -3.12804       -0.08536
H          3.39204       -3.74684        0.11029
H          1.93794       -3.70202       -0.60607
N          3.83176        0.35245        1.21698
H          3.44647        1.29347        1.10116
H          4.69665        0.47461        1.74647
C          1.12598        1.35804       -0.24960
N          1.95992        2.08190       -0.40244
H          1.52877        3.00904       -0.39862
H          2.52213        2.05406       -1.25466
C         -0.22411        1.59676       -0.46237
C         -0.62034        2.90231       -0.91734
N         -0.89546        3.96050       -1.24876
H          0.25519       -2.58475       -1.61205
H         -1.89884       -1.89002       -1.45910
H         -4.23815        1.06940        1.49582
