30
Coordinates from ORCA-job ./opt_b97-3c_parallel
N          3.43156        2.56906       -0.77094
C          2.87187        1.80431       -0.13298
C          1.66135        1.01093       -0.15101
C          1.98902       -0.37458        0.14245
N          3.11042       -0.82244        0.65777
C          3.02879       -2.10594        0.54817
C          1.94593       -2.54009       -0.04544
C          1.25921       -1.42313       -0.36267
N          0.25379       -1.54708       -1.16200
C         -0.89652       -1.54097       -0.58899
N         -1.32130       -2.54086       -0.78965
H         -1.46881       -2.49899       -1.79804
H         -0.86291       -3.43150       -0.60545
C         -1.44897       -0.36717        0.01592
C         -2.80712       -0.34457        0.45398
N         -3.08021        0.94248        0.72821
C         -2.04386        1.77188        0.50341
N         -2.53142        2.72038        0.79392
H         -1.67875        3.17160        0.45522
H         -2.96365        3.37202        1.44643
C         -0.93292        0.96815        0.05434
C          0.37261        1.56442       -0.26824
N          0.28053        2.66753       -0.37975
H          0.44221        2.55415       -1.38265
H          1.07223        3.21662       -0.03859
N         -3.80996       -0.74474        0.67549
H         -4.74507       -0.87480        1.06005
H         -3.55672       -1.62570        0.22817
H          1.67246       -3.57460       -0.24263
H          3.94409       -2.50739        1.00948
