31
Coordinates from ORCA-job ./opt_b97-3c_parallel
N         -4.84452       -0.79843        0.76362
C         -3.91401       -0.14522        0.64778
C         -2.71903        0.62846        0.51173
C         -2.65404        1.93509        1.06629
C         -1.49560        2.61873        0.83165
C         -0.73920        1.68260        0.17013
C          0.22400        2.09194       -0.81509
C          1.53806        1.49061       -0.77625
N          2.30110        2.19799       -1.15034
H          2.17101        3.20560       -1.06353
H          2.77135        2.04634       -2.04225
C          1.80378        0.33373        0.04194
C          1.09669       -0.90209        0.08891
C          2.00243       -1.88291        0.60177
N          3.15220       -1.23668        0.86490
C          3.12428        0.06522        0.52576
N          4.18629        0.25392        0.75347
H          3.99961        1.12327        0.25365
H          5.13829        0.32498        1.11035
N          2.19519       -2.94982        0.81414
H          1.37647       -3.55373        0.88512
H          2.97894       -3.49315        1.17556
C         -0.01949       -1.32368       -0.71161
C         -1.15269       -0.55419       -0.93077
C         -2.06767       -1.46286       -1.56071
N         -2.56629       -2.37764       -2.03134
C         -1.47031        0.53500       -0.03736
H          0.00999       -2.37750       -0.99088
H          0.17596        3.13279       -1.13721
H         -1.52481        3.65831        0.51103
H         -3.50510        2.35601        1.59421
