28
Coordinates from ORCA-job ./opt_b97-3c_parallel
N          4.26105        2.05937       -0.88243
C          3.89291        0.98056       -0.79558
C          2.92876        0.02652       -0.33777
C          3.45548       -1.15633        0.26018
N          2.37382       -1.41196        0.37162
C          1.25830       -1.37793        0.33719
C         -0.03075       -1.71508        0.61885
C         -1.12493       -1.64177       -0.19994
N         -1.41849       -2.68497       -0.41524
H         -1.12659       -3.65967       -0.45083
H         -2.36786       -2.64450       -0.78010
C         -1.98514       -0.48421       -0.30020
C         -3.33351       -0.47360       -0.45024
C         -3.74973        0.74071       -0.10192
C         -2.76118        1.56465        0.24861
N         -2.94123        2.83764        0.63199
H         -3.84126        3.14205        0.99725
H         -2.20822        3.32775        1.14082
C         -1.61731        0.84128        0.09501
C         -0.28145        1.37795       -0.00809
C          0.70095        0.78838       -0.74642
C          1.58193       -0.13352       -0.26990
H          0.77126        1.05872       -1.79704
H         -0.17171        2.42445        0.25635
H         -4.79821        1.03024       -0.10450
H         -3.95957       -1.30487       -0.76486
H         -0.22248       -1.98625        1.65631
H          4.41699       -1.62834        0.51092
