29
Coordinates from ORCA-job ./opt_b97-3c_parallel
N         -1.80927       -4.04149        0.14992
C         -1.27927       -3.03075        0.11393
C         -0.66454       -1.73037        0.06787
C          0.70690       -1.95232        0.04110
C          1.79847       -1.11177       -0.01270
C          3.09213       -1.73490       -0.08300
C          4.19663       -0.92120       -0.12709
C          3.52969        0.27414       -0.08350
N          4.28207        1.08285       -0.13268
H          4.01459        2.01173       -0.45187
H          5.30054        1.05241       -0.15426
C          2.10644        0.21094       -0.01412
C          1.38400        1.44272        0.04939
C          0.02183        1.58882        0.07822
C         -0.43782        2.94377        0.13209
N         -0.84748        4.00948        0.17964
C         -1.10437        0.79892        0.05049
N         -2.39502        0.76904        0.04731
C         -3.64170        0.46196        0.17183
C         -2.84998       -0.63607        0.00420
C         -1.48056       -0.52757        0.03506
H         -3.32956       -1.55520       -0.33541
N         -4.60068        0.98179        0.00506
H         -5.47701        0.46987       -0.09758
H         -4.85274        1.97027        0.02372
H          1.98787        2.34758        0.06182
H          5.05399       -1.13271        0.51292
H          3.18215       -2.81717       -0.09731
H          1.01578       -2.99914        0.04861
