31
Coordinates from ORCA-job ./opt_b97-3c_parallel
N          3.42872        3.55083        0.54958
C          3.01055        2.49157        0.45126
C          2.52808        1.14695        0.32641
C          3.27323        0.00646        0.78681
N          4.26088        0.00790        1.29171
H          4.82491        0.82446        1.05977
H          4.82427       -0.80998        1.06290
C          2.53012       -1.13639        0.32886
C          3.01603       -2.47961        0.45563
N          3.43712       -3.53761        0.55510
C          1.38547       -0.71649       -0.30793
N          0.68115       -1.48384       -1.16338
C         -0.70207       -1.54149       -1.08551
C         -1.51311       -0.71095       -0.24081
C         -2.77781       -1.18771        0.23305
C         -3.53348       -0.00145        0.56075
C         -4.90831       -0.00269        0.97294
N         -6.01510       -0.00386        1.25897
C         -2.78206        1.18496        0.22319
N         -3.13744        2.23282        0.23849
H         -2.75444        3.17352        0.30964
H         -4.14754        2.33114        0.14621
C         -1.51543        0.70858       -0.24613
C         -0.70625        1.53561       -1.09599
N          0.67788        1.48860       -1.16545
C          1.38470        0.72355       -0.31015
H         -0.11591        2.20954       -1.73464
N         -3.12901       -2.23656        0.25688
H         -4.13921       -2.31731        0.15191
H         -2.75782       -3.18360        0.29607
H         -0.09662       -2.20013       -1.72603
