28
Coordinates from ORCA-job ./opt_b97-3c_parallel
N         -3.13885       -2.31355       -0.06960
C         -2.39141       -1.19615       -0.07218
C         -3.08886       -0.01797       -0.08435
C         -2.44060        1.18659       -0.06128
N         -3.16847        2.31461       -0.01022
H         -4.13805        2.28601        0.29850
H         -2.75056        3.17491        0.33842
C         -1.15575        0.73643       -0.05577
C         -0.12379        1.74168       -0.06286
C          1.24818        1.72874       -0.03610
C          2.20472        0.66719        0.01243
C          2.24303       -0.70575        0.01992
C          1.23132       -1.71372       -0.03021
C         -0.13979       -1.66189       -0.06362
C         -1.12467       -0.69107       -0.06072
H         -0.53640       -2.67333       -0.08825
H          1.64928       -2.71630       -0.03103
C          3.56420       -1.07640        0.06911
C          4.36185       -0.01868        0.09335
C          3.56845        1.07237        0.05784
H          3.91648        2.10082        0.06248
H          5.44796       -0.02702        0.13467
H          3.91829       -2.10444        0.08901
H          1.69322        2.71943       -0.04043
H         -0.53913        2.74478       -0.08433
H         -4.17566       -0.03606       -0.11310
H         -4.09780       -2.28816        0.27075
H         -2.72723       -3.20152        0.21065
