27
Coordinates from ORCA-job ./opt_b97-3c_parallel
N          4.32428        2.27368        0.21112
C          3.60377        1.39236        0.12612
C          2.74363        0.25477        0.02043
C          3.01449       -1.07980        0.15750
N          1.96376       -1.88894       -0.01117
C          0.90434       -1.03106       -0.28087
N         -0.32892       -1.37694       -0.50289
C         -1.59820       -1.23323       -0.26790
N         -1.75016       -2.31988       -0.38758
H         -2.68529       -1.92008       -0.47098
H         -1.83508       -3.29114       -0.68558
C         -2.20702        0.03921        0.04203
C         -1.45284        1.26674        0.02963
C         -2.62996        2.04689        0.28887
N         -3.20269        1.11980        0.44676
C         -3.59457        0.09278        0.39254
N         -4.49399       -0.52281        0.54458
H         -4.66471       -1.37057        1.08321
H         -5.27343        0.10436        0.73719
H         -3.03189        3.06927        0.21229
C         -0.19834        1.87465       -0.33040
N          0.69835        1.23405       -0.42606
C          1.34223        0.34445       -0.26304
H         -0.24366        2.92244       -0.66637
N          3.91133       -1.69171        0.38431
H          4.78775       -1.16551        0.41443
H          4.15969       -2.63760        0.68082
