32
Coordinates from ORCA-job ./opt_b97-3c_parallel
N          5.09628        0.07768        0.66791
C          4.02249       -0.06225        0.44812
N          2.77691        0.29133        0.48909
C          1.49256        0.42995        0.35842
C          1.90690       -0.71452       -0.25833
C          0.93489       -1.65679       -0.76240
C         -0.43128       -1.65210       -0.45612
N         -0.79508       -2.67620       -0.66824
H         -0.23649       -3.52775       -0.73644
H         -1.65359       -2.87388       -1.18312
C         -1.31781       -0.63182        0.10667
C         -2.63878       -1.03676        0.53315
N         -3.41823        0.04452        0.77062
C         -2.62236        1.13958        0.48134
N         -3.38231        1.92625        0.64979
H         -4.37150        2.07924        0.85218
H         -3.00866        2.83625        0.37944
C         -1.30563        0.74194        0.10640
C         -0.37056        1.71085       -0.41563
N         -0.59754        2.75059       -0.71693
H         -1.06644        2.81510       -1.62102
H         -0.00297        3.57773       -0.65032
C          0.96713        1.41398       -0.53761
H          1.68322        2.08397       -1.01376
N         -3.47608       -1.71544        0.76948
H         -2.85975       -2.52692        0.73060
H         -4.36269       -2.04757        1.14833
H          1.38834       -2.53656       -1.22748
C          3.24894       -0.95139       -0.23424
H          3.64087       -1.93511       -0.49862
H          5.79490       -0.66647        0.64973
H          5.60816        0.92628        0.91008
