24
Coordinates from ORCA-job ./opt_b97-3c_parallel
C         -3.80279       -0.00983       -0.00056
C         -3.01202       -1.07194       -0.00073
C         -1.68512       -0.71462       -0.00063
C         -0.69116       -1.74941       -0.00049
C          0.68218       -1.73462       -0.00001
C          1.63838       -0.66456        0.00014
C          3.00321       -1.07560        0.00066
C          3.80411        0.01026        0.00060
C          3.01221        1.07182        0.00000
C          1.68607        0.71363       -0.00024
C          0.69249        1.74824       -0.00064
C         -0.68119        1.73328       -0.00061
C         -1.63690        0.66356       -0.00054
C         -3.00172        1.07526       -0.00047
H         -3.34641        2.10495       -0.00036
H         -1.12785        2.72292       -0.00069
H          1.13198        2.74093       -0.00080
H          3.37649        2.09686       -0.00027
H          4.89120        0.01226        0.00090
H          3.34854       -2.10461        0.00110
H          1.12889       -2.72441        0.00024
H         -1.13144       -2.74203       -0.00060
H         -3.37661       -2.09687       -0.00093
H         -4.89034       -0.01143       -0.00058
