33
Coordinates from ORCA-job ./opt_b97-3c_parallel
N         -3.69782       -2.56880        1.64781
C         -3.23002       -1.60282        1.25580
C         -2.65088       -0.41254        0.71319
C         -3.41888        0.77771        0.52244
N         -2.55884        1.24193        0.01239
C         -1.46087        1.15670       -0.09185
C         -1.30705       -0.22096        0.24330
C         -1.10027       -0.99537       -0.95178
C          0.19166       -1.62089       -0.99841
N          0.06626       -2.54734       -1.58670
H          0.94636       -2.51446       -2.09832
H         -0.46202       -3.33848       -1.94999
C          1.21558       -1.09342       -0.12547
C          1.55348        0.19599        0.20183
C          2.86393        0.03276        0.77818
C          3.31124       -1.25649        0.96158
C          2.33057       -1.91076        0.24901
N          2.66903       -2.95731        0.14111
H          3.04901       -3.71827        0.70226
H          1.80730       -3.29982       -0.27888
H          3.60263       -1.62076        1.95258
N          3.74636        0.58860        1.15441
H          3.14048        1.40718        1.12071
H          4.38683        0.73060        1.93292
C          1.03651        1.50563       -0.23523
N          1.84533        2.26492       -0.32060
H          1.73241        3.08508       -0.91446
H          2.64306        1.74907       -0.68986
C         -0.29090        1.91317       -0.47625
C         -0.57952        3.25083       -0.93934
N         -0.78388        4.30505       -1.33018
H         -1.91974       -1.33105       -1.58884
H         -4.44971        1.11260        0.71191
