25
Coordinates from ORCA-job ./opt_b97-3c_parallel
N         -2.17559       -4.18879        0.05376
C         -1.97443       -3.06406        0.08510
C         -1.73740       -1.64846        0.08113
C         -2.82547       -0.82328        0.16227
C         -2.20995        0.40300        0.08581
C         -3.32404        1.29645        0.20641
N         -4.19513        2.02721        0.32299
C         -0.84519        0.28995       -0.05485
C         -0.45898       -1.01153       -0.05949
N          0.44144       -1.62550       -0.15375
C          1.50818       -1.70366        0.04752
C          2.54295       -0.72734        0.06267
C          2.45699        0.66440       -0.13987
C          3.80494        1.12662       -0.13732
N          3.93743        0.02816        0.05176
C          3.91210       -1.08181        0.21940
H          4.57359       -1.94688        0.37595
H          4.34161        2.08151       -0.24193
C          1.37890        1.62371       -0.29504
C         -0.00922        1.47014       -0.21067
C         -0.55602        2.79435       -0.29928
N         -0.91993        3.87837       -0.28966
H          1.78430        2.62604       -0.43294
H          1.75744       -2.76434        0.20223
H         -3.72321       -1.05585       -0.41246
