32
Coordinates from ORCA-job ./opt_b97-3c_parallel
N         -3.43069       -2.29541        1.46705
C         -2.60608       -1.60731        1.07678
C         -1.53709       -0.78086        0.57639
C         -1.90649        0.36213       -0.24024
C         -1.13223        1.55845       -0.36124
C         -0.29920        2.03628        0.60578
C          0.91845        1.54611        0.77737
N          1.76320        1.99970        1.71965
H          2.02857        1.38867        2.49177
H          1.57994        2.91128        2.14214
C          1.37203        0.51985       -0.00200
C          2.60393        0.52510       -0.60184
N          2.99450       -0.67419       -1.06549
C          1.96783       -1.55859       -0.73658
N          2.35697       -2.52599       -1.10985
H          1.55876       -3.01274       -0.69395
H          2.87782       -3.23953       -1.62231
C          0.90422       -0.82147       -0.08455
C         -0.25942       -1.36134        0.47175
N         -0.05353       -2.42894        0.71823
H          0.06467       -2.57210        1.72313
H         -0.91372       -2.92568        0.47535
N          3.49404        1.15035       -0.81103
H          4.42069        1.34302       -1.19542
H          3.30909        1.90883       -0.15027
H         -0.64746        2.84443        1.24797
C         -1.92937        2.45231       -1.00814
C         -3.11157        1.88351       -1.20244
C         -3.14170        0.64084       -0.74313
H         -3.99472       -0.03379       -0.78963
H         -3.95584        2.37728       -1.67965
H         -1.65982        3.46778       -1.29180
