31
Coordinates from ORCA-job ./opt_b97-3c_parallel
N         -4.65633       -0.26643        0.73111
C         -3.66293       -0.01510        0.32734
N         -2.88432       -0.98448       -0.18067
C         -1.71130       -0.50166       -0.57980
N         -0.71101       -1.04286       -1.19428
C          0.29501       -1.53305       -0.55053
N          0.16413       -2.62142       -0.68803
H          1.15373       -2.78770       -0.87390
H         -0.27163       -3.54402       -0.66490
C          1.25714       -0.66882        0.06873
C          2.46368       -1.10718        0.69712
C          3.29958       -0.06824        1.04067
C          2.63776        1.03667        0.55332
N          3.12370        2.02190        0.67441
H          3.18031        2.49105        1.58074
H          4.09309        1.87344        0.38672
C          1.35286        0.74456       -0.00348
C          0.51774        1.75896       -0.62129
N         -0.87804        1.86011       -0.54977
C         -1.81991        0.87527       -0.23646
C         -3.05621        1.21279        0.22964
H         -3.59473        2.07211       -0.16840
N          0.55683        2.84507       -0.82803
H          0.45488        3.68313       -1.40489
H          1.49650        2.91919       -0.42484
H          4.38597       -0.15895        0.97133
N          2.85709       -2.11439        0.92013
H          3.57655       -2.03972        1.63990
H          2.88696       -3.08311        0.60243
H         -5.41619        0.40548        0.84375
H         -5.00421       -1.14515        1.11648
