26
Coordinates from ORCA-job ./opt_b97-3c_parallel
N         -2.16373       -3.59905        0.54082
C         -1.50673       -2.67869        0.37892
C         -0.72989       -1.49250        0.16900
C         -1.39124       -0.21244        0.12594
N         -2.65508        0.00924        0.31233
C         -2.87160        1.26530        0.07293
C         -1.77546        1.97396       -0.33307
C         -0.86939        0.95506       -0.32692
N          0.19544        1.43955       -0.85401
C          1.41650        1.48511       -0.45945
N          1.48618        2.55508       -0.72000
H          2.38752        2.16115       -0.98454
H          1.37426        3.40525       -1.26888
C          2.15958        0.34875        0.00178
C          3.56149        0.48226        0.23050
N          3.35247       -0.60490        0.37515
C          3.03029       -1.67068        0.45448
C          1.79235       -1.01805        0.17152
C          0.63281       -1.79007        0.15676
H          0.86287       -2.84979        0.26454
H          3.61016       -2.57612        0.69098
H          4.41954        1.17139        0.23394
H         -1.54365        2.94187        0.11177
N         -3.94211        1.44389        0.28962
H         -4.34990        2.34998        0.51996
H         -4.71844        0.78190        0.28012
