36
Coordinates from ORCA-job ./opt_b97-3c_parallel
N         -4.66714       -2.25612       -1.21032
C         -3.96100       -1.36690       -1.08306
C         -3.08360       -0.24159       -0.97350
C         -3.25074        0.86921       -1.74079
C         -2.26047        1.72006       -1.51906
C         -1.40144        1.20535       -0.59192
C         -1.87968       -0.10798       -0.19422
C         -1.38125       -1.12957        0.72361
C         -2.05836       -2.33879        1.09321
N         -2.59073       -3.29082        1.43438
C         -0.05717       -1.04454        1.28402
N          0.34361       -1.26040        2.29535
H         -0.31318       -1.94998        2.65751
H          1.26607       -1.69188        2.33305
C          1.11039       -0.71578        0.50713
C          1.88699       -1.54689       -0.23761
N          1.80680       -2.64357       -0.35207
H          1.24253       -3.46862       -0.15860
H          2.67556       -2.97042       -0.77280
C          2.75744       -0.56335       -0.81338
C          3.80311       -0.84306       -1.75191
N          4.73157       -1.38479       -2.13988
C          2.60420        0.76495       -0.48375
N          3.39984        1.84660       -0.39974
H          4.21569        1.93338       -1.00345
H          3.00082        2.77426       -0.26551
C          1.48875        0.63434        0.30959
C          0.67762        1.58850        0.85133
N          1.09639        1.99989        2.06127
H          0.90287        2.95042        2.36936
H          2.03161        1.75334        2.38120
C         -0.25790        1.93910       -0.07872
C          0.06955        3.26698       -0.51129
N          0.29940        4.33302       -0.85222
H         -2.15498        2.68244       -2.01637
H         -4.06842        1.03057       -2.44030
