24
Coordinates from ORCA-job ./opt_b97-3c_parallel
N         -2.62194       -3.22459        0.23855
C         -1.95332       -2.30512        0.11615
C         -1.07936       -1.17929       -0.04315
C         -1.59381        0.16711        0.16575
C         -0.97693        1.32280       -0.28395
N         -0.00753        1.94091       -0.87709
C          1.26654        1.97912       -0.66173
C          1.98983        0.80917       -0.26268
C          3.38925        0.90784        0.01310
N          3.46468       -0.15269        0.29720
C          2.48957       -0.44174        0.71947
C          1.30936       -0.44869       -0.10666
C          0.29392       -1.41459       -0.45841
N          0.86747       -2.31727       -0.73855
H          0.28390       -3.12952       -0.54509
H          1.76573       -2.66534       -1.06798
H          2.80392       -1.42490        1.10438
H          4.14044        1.71186       -0.00744
H          1.63785        3.00430       -0.80790
C         -1.86002        2.31069       -0.01774
C         -2.89595        1.70350        0.50786
N         -2.79349        0.42322        0.63253
H         -3.89190        1.95387        0.90303
H         -1.76700        3.38178       -0.20115
