37
Coordinates from ORCA-job ./opt_b97-3c_parallel
N         -2.80325       -2.95657       -1.96056
C         -2.08638       -2.21919       -1.46240
C         -1.18060       -1.31202       -0.80165
C          0.18584       -1.57438       -0.88486
N          0.62309       -2.45368       -1.40526
H          1.62752       -2.61895       -1.45480
H          0.16988       -3.24950       -1.85159
C          1.12803       -0.72666       -0.17236
C          1.09818        0.64428       -0.12261
C          2.37432        1.10521        0.36208
C          3.11906       -0.01428        0.69541
C          4.45129       -0.02494        1.24387
N          5.39280       -0.12078        1.88463
C          2.39172       -1.21055        0.32942
N          2.83919       -2.21697        0.45786
H          3.53847       -2.30941        1.19299
H          2.02161       -2.74648        0.75492
N          2.78732        2.12711        0.48611
H          2.37334        2.76786       -0.18890
H          3.75405        2.41876        0.61993
C          0.25955        1.49185       -0.95739
N          0.70753        2.31934       -1.54738
H          0.26364        3.21743       -1.73288
H          1.43239        2.19526       -2.25167
C         -1.13174        1.67474       -0.55260
C         -1.87473        2.86161       -0.89619
N         -2.45510        3.81622       -1.13797
C         -1.70833        0.74463        0.39070
C         -2.90014        1.02471        1.12362
C         -3.43192       -0.13174        1.59578
N         -4.53603       -0.27809        2.34166
H         -5.07643       -1.13981        2.29169
H         -5.18950        0.49626        2.44427
C         -2.67042       -1.13131        1.16348
C         -1.60587       -0.68323        0.42818
H         -2.85897       -2.18064        1.38149
H         -3.37056        2.00218        1.16694
