33
Coordinates from ORCA-job ./opt_b97-3c_parallel
N         -3.21611       -3.09427       -0.94704
C         -2.78282       -2.07426       -0.66673
C         -2.24728       -0.80524       -0.27327
C         -2.72819        0.47241       -0.45149
C         -1.81929        1.39222        0.17686
C         -1.88705        2.82089        0.26850
N         -2.45329        3.81083        0.19451
C         -0.79237        0.67740        0.75091
N          0.26270        1.02713        1.42862
C          1.40410        1.23662        0.84927
N          1.52695        2.29764        1.12940
H          1.18466        2.95113        1.83071
H          2.31973        1.80769        1.53895
C          2.05484        0.29078       -0.02697
C          3.11312        0.59203       -0.85008
C          3.39921       -0.56480       -1.52216
C          2.58279       -1.54579       -1.15286
C          1.72728       -1.09728       -0.19240
C          1.01082       -1.89370        0.67162
N          1.75753       -2.87457        1.20639
H          2.66608       -3.09987        0.80527
H          1.32128       -3.74420        1.50674
C         -0.28433       -1.74418        0.94973
C         -1.02562       -0.70302        0.46537
H         -0.76154       -2.43522        1.64096
H          2.60563       -2.55807       -1.54925
H          4.18195       -0.67852       -2.27152
N          3.75216        1.45481       -1.10764
H          4.74312        1.66638       -1.20994
H          3.32077        2.26233       -0.66071
N         -3.66668        0.74170       -0.97180
H         -4.45988        0.12334       -0.80880
H         -4.01498        1.69620       -0.89266
