33
Coordinates from ORCA-job ./opt_b97-3c_parallel
N          5.22871        0.87876       -0.72265
C          4.20455        0.42909       -0.49856
C          2.94652       -0.17965       -0.19603
C          3.07460       -1.53480       -0.07211
N          1.92453       -2.11208        0.28780
C          1.01151       -1.06361        0.43216
N         -0.18938       -1.50556        0.65695
C         -1.47031       -1.44005        0.43862
N         -1.60021       -2.46343        0.82763
H         -1.69410       -3.43117        0.51605
H         -2.07162       -2.41732        1.73222
C         -2.12069       -0.29163       -0.15001
C         -1.41709        0.94600       -0.45915
C         -2.59956        1.55131       -1.05208
N         -3.75136        0.87701       -0.98835
C         -3.52839       -0.29941       -0.40746
N         -4.50534       -0.80974       -0.38771
H         -4.70822       -1.60407        0.21977
H         -5.39674       -0.55564       -0.81396
N         -2.90373        2.47774       -1.58073
H         -2.37496        3.28712       -1.91194
H         -3.87244        2.68984       -1.83283
C         -0.28344        1.47338        0.28036
N         -0.73449        1.73411        1.26474
H         -0.05298        2.46767        1.47123
H         -1.51501        1.91158        1.89940
C          1.04640        1.30935       -0.05983
C          1.46609        2.28025       -0.40400
N          2.16125        3.13117       -0.09046
C          1.63735        0.10635        0.07250
N          3.70649       -2.44829       -0.12194
H          4.68272       -2.17290        0.02067
H          3.76492       -3.39777       -0.49920
