34
Coordinates from ORCA-job ./opt_b97-3c_parallel
N          2.97244        4.36259        0.18019
C          2.71843        3.24969        0.23363
C          2.39455        1.85688        0.25700
C          3.25555        0.94446        0.92572
C          2.76205       -0.38099        0.73968
C          3.52995       -1.44466        1.31523
N          4.14836       -2.27264        1.80150
C          1.58780       -0.27715        0.00407
C          1.34826        1.12084       -0.24912
C          0.40380        1.70763       -1.06585
C         -0.94958        1.41665       -1.18411
N         -1.40982        2.28647       -1.69545
H         -2.42394        2.18560       -1.69175
H         -1.21575        3.27043       -1.87377
C         -1.66614        0.49325       -0.32855
C         -1.42249       -0.84776       -0.11153
C         -2.52334       -1.47537        0.44269
C         -3.44564       -0.47232        0.47332
C         -4.64515       -1.09940        0.94722
N         -5.66829       -1.14241        1.45501
C         -3.02420        0.80350        0.00784
N         -3.81339        1.57801       -0.00615
H         -3.36843        2.33878        0.50361
H         -4.76231        1.49131        0.35414
H         -2.39463       -2.16083        1.28019
C         -0.40625       -1.61873       -0.66750
N         -0.70123       -2.65473       -0.96062
H         -0.08970       -3.45210       -1.13018
H         -1.57819       -2.85002       -1.44004
C          0.95708       -1.32584       -0.66221
C          1.93241       -2.27703       -1.15513
N          2.67716       -3.03942       -1.56997
H          0.75126        2.65382       -1.49221
H          4.17344        1.20927        1.44200
