28
Coordinates from ORCA-job ./opt_b97-3c_parallel
N         -4.90810       -0.11768        0.21869
C         -3.84876       -0.29536       -0.03398
N         -2.95031        0.63064       -0.13475
C         -1.66059        0.51065       -0.14445
C         -1.66190       -0.85306       -0.30954
C         -2.95784       -1.26939       -0.37396
H         -3.22356       -2.32297       -0.30350
C         -0.61263       -1.82756       -0.43620
C          0.75732       -1.75853       -0.37606
C          1.67797       -0.67339       -0.18124
C          3.04887       -1.08026       -0.15124
N          3.13226        0.02061       -0.01504
C          2.99422        1.12107        0.09151
C          1.63586        0.67703       -0.03507
C          0.61391        1.69703        0.00467
N          0.86781        2.77269        0.10552
H          0.51762        3.72240        0.21719
H          1.80842        2.85851       -0.27414
C         -0.76764        1.62782       -0.03251
H         -1.34758        2.55230        0.04585
H          3.84368        1.81001        0.21381
N          3.89838       -1.77993       -0.18566
H          4.89511       -1.66785       -0.00999
H          3.57923       -2.55213        0.39469
H          1.26102       -2.71568       -0.48539
H         -0.97997       -2.83863       -0.58891
H         -5.64146       -0.82403        0.17608
H         -5.36330        0.74667        0.51268
