27
Coordinates from ORCA-job ./opt_b97-3c_parallel
N          4.30502        2.33611        0.28752
C          4.02149        1.25901        0.03802
C          3.59681       -0.07098       -0.26855
C          4.31097       -1.01797        0.40145
N          3.27088       -1.81650        0.30348
C          2.04359       -1.44553       -0.19802
N          0.90263       -2.02725       -0.39923
C         -0.37172       -2.13163       -0.19865
C         -1.34144       -1.06139       -0.16560
C         -2.71074       -1.36703        0.07119
C         -3.43612       -0.13242        0.04486
C         -4.84257       -0.02432        0.27750
N         -5.95875        0.08532        0.49022
C         -2.53065        0.96116       -0.22659
N         -2.78954        2.03492       -0.29305
H         -3.64958        1.91601       -0.83290
H         -3.05340        2.62183        0.50129
C         -1.22437        0.36581       -0.35109
C         -0.06001        1.20446       -0.58798
N          1.15343        0.64697       -0.49039
C          2.23571       -0.10505       -0.36574
N          0.20259        2.26764       -0.75199
H         -0.79581        2.49329       -0.69517
H          0.64423        3.14560       -1.03560
H         -3.13174       -2.35192        0.25277
H         -0.62745       -3.19360       -0.05324
H          5.31951       -1.20674        0.80260
