22
Coordinates from ORCA-job ./opt_b97-3c_parallel
N          4.04837        2.20205       -0.22316
C          3.37491        1.28443       -0.13274
C          2.56222        0.11229       -0.03791
C          3.11078       -1.12737       -0.17655
N          2.06254       -1.92424       -0.04233
C          0.87502       -1.25419        0.17750
N         -0.32642       -1.71546        0.33846
C         -1.61459       -1.69453        0.20189
C         -2.45200       -0.52577        0.07205
C         -3.80116       -0.48832       -0.08268
C         -4.15080        0.79426       -0.16119
C         -3.10815        1.61599       -0.06474
C         -2.00818        0.83534        0.08276
C         -0.63644        1.23546        0.21661
N          0.42956        0.97212        0.33238
C          1.15567        0.14609        0.18922
H         -0.54455        2.33285        0.19869
H         -3.13475        2.70305       -0.10077
H         -5.17650        1.13376       -0.29038
H         -4.47288       -1.34251       -0.13641
H         -2.12386       -2.67003        0.17708
H          4.16087       -1.40113       -0.36281
