25
Coordinates from ORCA-job ./opt_b97-3c_parallel
N         -5.56096        0.09062       -0.46501
C         -4.44681        0.09722       -0.21668
C         -3.04492        0.09868        0.04977
C         -2.33272       -1.10002        0.31255
C         -0.99727       -0.64693        0.44791
C          0.00830       -1.66634        0.69131
N          1.29841       -1.68478        0.27386
C          2.15776       -0.71873       -0.11288
N          3.31287       -0.96872       -0.80988
C          3.98980        0.23571       -0.91690
N          3.27751        1.20540       -0.22275
C          2.14055        0.63427        0.30788
N          1.24325        1.12082        1.09853
C          0.10672        1.56958        0.69175
N          0.19692        2.66839        0.75715
H         -0.76672        2.76847        1.07923
H          0.60278        3.60279        0.82528
C         -1.00755        0.73505        0.33594
C         -2.25924        1.21733        0.03025
H         -2.40231        1.98637       -0.72736
H          4.94805        0.31671       -1.45724
N          0.20594       -2.74198        0.82290
H          0.61561       -3.67513        0.88989
H         -0.74280       -2.83586        1.18710
H         -2.71566       -2.11602        0.35007
