29
Coordinates from ORCA-job ./opt_b97-3c_parallel
N         -1.77392       -3.58872       -0.55407
C         -1.14217       -2.77628       -0.05670
C         -0.65816       -1.42194       -0.06587
C          0.72029       -1.49916        0.00517
C          1.73838       -0.48314        0.04454
C          1.83201        0.87467        0.00354
C          3.22689        1.19716        0.08285
N          3.24999        0.08516        0.12497
C          3.06445       -1.01108        0.14438
N          3.85558       -1.77424        0.21772
H          4.85962       -1.67375        0.34830
H          3.56793       -2.59546        0.74529
H          4.15094        1.79369        0.12189
C          0.93403        2.00169       -0.09908
N          1.26849        3.05848       -0.13254
H          2.20262        2.99005       -0.53340
H          1.05298        4.05272       -0.07836
C         -0.50702        2.03473       -0.15018
C         -1.42865        1.01684       -0.14270
N         -2.72176        1.06313       -0.16533
C         -3.75576        0.42328        0.27636
C         -2.96249       -0.58902       -0.17193
C         -1.61831       -0.34291       -0.11965
H         -3.36835       -1.33857       -0.85225
N         -4.79505        0.72149        0.49545
H         -5.20676        1.62595        0.72426
H         -5.56358        0.05097        0.50097
H         -0.97493        3.02077       -0.19982
H          1.17086       -2.49228        0.04584
