29
Coordinates from ORCA-job ./opt_b97-3c_parallel
N         -3.53231       -3.69610       -0.11209
C         -3.18307       -2.60749       -0.11463
C         -2.77311       -1.23656       -0.08246
C         -3.65141       -0.25490       -0.44382
C         -2.88467        0.85837       -0.22848
C         -3.50352        2.11225       -0.52743
N         -3.99065        2.92900       -1.16236
C         -1.61363        0.60390        0.22937
N         -0.63469        1.40169        0.53417
C          0.61271        1.74837        0.57186
N          0.33132        2.80931        0.66740
H         -0.36621        3.46688        1.00983
H          1.06311        2.76033        1.37324
C          1.78838        0.91277        0.43456
C          3.03036        1.45622        0.36833
C          3.40258        0.15639        0.13102
C          4.79833        0.25911       -0.18970
N          5.90098        0.34553       -0.47936
C          2.94605       -1.13937        0.14525
N          3.35765       -2.40762       -0.02176
H          2.71998       -3.11036       -0.39048
H          4.28413       -2.59329       -0.40302
C          1.75002       -0.52056        0.33842
C          0.51157       -1.23670        0.48682
N         -0.57297       -1.38542        0.64085
C         -1.47193       -0.81387        0.32646
H          0.60341       -2.33237        0.42646
H          3.23969        2.25663       -0.34039
H         -4.69343       -0.29198       -0.13173
