27
Coordinates from ORCA-job ./opt_b97-3c_parallel
N          4.23235        1.70712       -0.01159
C          3.49584        0.83374        0.03696
C          2.60693       -0.28449        0.08616
C          2.84124       -1.57668       -0.27326
C          1.73899       -2.29602       -0.10029
C          0.74170       -1.50241        0.37815
N         -0.50430       -1.70727        0.65591
C         -1.67324       -1.43717        0.17556
N         -2.02982       -2.48093        0.18682
H         -1.85081       -3.25938        0.81770
H         -2.78351       -1.93630        0.60068
C         -2.21329       -0.16510       -0.25189
C         -3.43962       -0.00569       -0.81733
C         -3.61033        1.29014       -1.05037
C         -2.56399        2.01153       -0.66586
C         -1.63987        1.15682       -0.15044
C         -0.37730        1.56995        0.42302
N          0.57402        0.84531        0.91330
C          1.25032       -0.18624        0.52207
N          0.12952        2.53481        0.59429
H         -0.80126        2.72204        0.96122
H          0.79287        2.92148        1.26283
H         -2.46107        3.09028       -0.75632
H         -4.50296        1.71198       -1.50676
H         -4.14825       -0.79773       -1.04902
H          1.64318       -3.35769       -0.31447
H          3.78622       -1.95954       -0.65096
