29
Coordinates from ORCA-job ./opt_b97-3c_parallel
N         -3.37688       -2.41785        0.95859
C         -2.50763       -1.73346        0.67052
C         -1.38753       -0.88060        0.33751
C         -0.31185       -1.51941       -0.40336
C         -0.48254       -2.69240       -1.07901
C          0.83455       -2.87461       -1.36523
N          1.15955       -2.01333       -0.76313
C          1.03357       -1.14642       -0.08643
C          1.39665       -0.27559        0.90192
C          1.48481       -0.56278        1.97002
N          1.93847       -0.85944        2.97692
C          1.67302        0.78278        0.08469
N          2.73345        1.06737       -0.10286
H          2.64924        1.93699        0.42040
H          3.48774        0.53447        0.32674
C          0.65001        1.66348       -0.42431
C          0.84751        2.88159       -1.00152
C         -0.29659        3.54301       -0.91815
C         -1.24765        2.82209       -0.33808
C         -0.73430        1.58194       -0.03566
C         -1.48811        0.51968        0.50782
N         -2.41921        0.90531        0.98327
H         -2.50545        1.80896        1.44460
H         -3.31441        0.43111        1.09199
H         -2.27048        3.16038       -0.18477
H         -0.44149        4.55520       -1.28801
H          1.77161        3.25159       -1.44017
H          1.04861       -3.92837       -1.60220
H         -1.23916       -2.78618       -1.85524
