36
Coordinates from ORCA-job ./opt_b97-3c_parallel
N         -3.59102       -3.61108        0.26867
C         -3.31815       -2.50575        0.16832
C         -2.97018       -1.11886        0.08673
C         -3.67779       -0.02978       -0.36909
C         -2.86445        1.14424       -0.20150
C         -3.11693        2.52171       -0.50550
N         -3.58645        3.31342       -1.18287
C         -1.66730        0.77377        0.36601
N         -0.60605        1.41517        0.74761
C          0.66952        1.62973        0.70625
N          0.41403        2.68515        0.89931
H          1.03001        2.43284        1.66953
H         -0.20410        3.41953        1.23831
C          1.68502        0.65365        0.37981
C          3.02918        1.08716        0.12685
C          3.72391       -0.11907       -0.27247
C          5.11882       -0.10447       -0.62411
N          6.22480       -0.12289       -0.91250
C          2.86024       -1.20377       -0.24812
N          3.18758       -2.23111       -0.50186
H          2.57215       -2.70675       -1.15962
H          4.14065       -2.36940       -0.83505
C          1.58790       -0.70408        0.18821
C          0.47938       -1.60558        0.43676
N          0.30859       -2.69356        0.32622
H          1.30862       -2.84923        0.44360
H         -0.15471       -3.57658        0.53397
C         -0.69386       -1.36860        1.09851
C         -1.70170       -0.63775        0.54025
H         -0.72156       -1.50957        2.17983
N          3.44794        2.10982        0.19664
H          2.84305        2.92915        0.19337
H          4.36254        2.41087       -0.13494
N         -4.70244       -0.03365       -0.78528
H         -5.47556       -0.65191       -0.54511
H         -5.10910        0.80342       -1.20040
