25
Coordinates from ORCA-job ./opt_b97-3c_parallel
N         -4.55997        0.24538       -0.19663
C         -3.50639       -0.07321       -0.10923
N         -2.64054        0.99643       -0.11070
C         -1.35034        0.49597       -0.00698
C         -1.37826       -0.88252        0.07213
N         -0.54182       -1.91683        0.20819
C          0.83242       -1.97507        0.24542
C          1.88669       -1.02034        0.11151
C          3.20961       -1.55512        0.10919
N          3.39399       -0.46140        0.00993
C          3.40336        0.64987       -0.05900
C          1.99660        0.38333        0.01221
C          1.08052        1.49994        0.01364
N          1.43988        2.54837       -0.01860
H          2.41409        2.49484        0.27421
H          1.22560        3.54135       -0.09990
C         -0.36388        1.54615        0.00758
H         -0.81108        2.54295       -0.03053
H          4.28890        1.29954       -0.13036
H          3.77620       -2.49679        0.16605
H          1.02699       -3.05432        0.34093
C         -2.69940       -1.23862        0.01248
H         -3.10824       -2.24463        0.05008
H         -5.34239       -0.40687       -0.24787
H         -4.95807        1.17569       -0.32272
