34
Coordinates from ORCA-job ./opt_b97-3c_parallel
N         -4.00286       -2.52703       -0.26918
C         -3.41637       -1.54560       -0.27713
C         -2.67824       -0.31638       -0.24159
C         -3.32596        0.92375        0.04701
C         -2.50812        2.02019       -0.00211
C         -1.29797        1.42483       -0.25115
C         -1.38430        0.07821       -0.45346
N         -0.61828       -0.86994       -0.86047
C          0.30595       -1.46142       -0.19577
N         -0.08785       -2.49236       -0.19586
H         -0.96173       -2.92139       -0.49704
H          0.54808       -2.52411       -0.99041
C          1.50854       -0.79278        0.18815
C          2.64878       -1.49710        0.68357
C          3.77358       -0.71580        0.80269
C          3.30882        0.51615        0.39463
N          4.17287        1.19523        0.52818
H          3.43728        1.77870        0.92364
H          4.94355        1.20195        1.19387
C          1.92555        0.55436       -0.00245
C          1.29070        1.80232       -0.42963
N          1.85851        2.74246       -0.56631
H          2.77450        2.37690       -0.82341
H          1.84416        3.72284       -0.83965
C         -0.11366        2.21940       -0.46026
H         -0.32821        3.28681       -0.54462
H          4.75027       -1.09286        0.48157
N          2.88233       -2.54263        0.95564
H          3.62832       -3.23201        1.02406
H          2.04538       -3.03766        0.65217
H         -2.58066        2.83176        0.72256
N         -4.35835        1.25255        0.27170
H         -4.89789        0.45438        0.60173
H         -5.00201        1.85816       -0.23420
