31
Coordinates from ORCA-job ./opt_b97-3c_parallel
N         -4.28066       -2.50696       -0.31189
C         -3.70802       -1.51850       -0.27932
C         -2.95159       -0.30442       -0.21807
C         -3.32100        1.01741       -0.35142
C         -2.30044        1.92841       -0.19489
C         -1.23772        1.12892        0.12127
N         -0.19471        1.63082        0.69469
C          1.05727        1.90040        0.54185
C          1.94073        0.87480        0.09683
C          3.31581        1.15527       -0.15528
N          3.76263        0.01615       -0.67014
C          2.74317       -0.84561       -0.71248
N          3.31255       -1.68972       -1.14610
H          4.20247       -2.17279       -1.26527
H          2.64923       -2.38854       -0.80861
C          1.45068       -0.46023       -0.17174
C          0.66470       -1.44272        0.54706
N          1.04228       -2.42714        0.88189
H          1.12287       -2.46416        1.89830
H          0.40223       -3.17838        0.62200
C         -0.78195       -1.42930        0.42775
C         -1.55573       -0.25788        0.05459
H         -1.32913       -2.35048        0.62158
N          4.20355        1.80787       -0.18748
H          5.22051        1.86968       -0.15799
H          3.85285        2.74215        0.01926
H          1.03257        2.96638        0.81455
H         -2.17732        2.76631       -0.88041
N         -4.30358        1.48870       -0.53481
H         -4.78520        2.35920       -0.75610
H         -5.01089        0.85139       -0.17112
