30
Coordinates from ORCA-job ./opt_b97-3c_parallel
N         -3.20299       -2.92885       -0.37343
C         -2.78819       -1.86544       -0.31111
C         -2.28429       -0.52868       -0.19172
C         -3.12812        0.54311        0.23020
C         -2.52800        1.77377        0.24028
C         -1.23820        1.42607       -0.07124
C         -1.09176        0.11002       -0.40065
N         -0.16283       -0.61742       -0.90779
C          0.85960       -1.05312       -0.26686
N          0.68507       -2.14320       -0.31544
H          0.01914       -2.69058       -0.85684
H          1.48181       -1.96140       -0.92273
C          1.93323       -0.19955        0.13749
C          3.20252       -0.72241        0.54028
C          4.06316        0.33316        0.63239
C          3.44268        1.46036        0.30089
C          2.13217        1.21673        0.01387
C          1.22674        2.31189       -0.29751
C         -0.21962        2.43244       -0.23222
H         -0.57776        3.45718       -0.21052
H          1.72039        3.27646       -0.36788
H          3.91152        2.44155        0.29108
H          5.11406        0.27551        0.91507
N          3.68773       -1.69823        0.71997
H          4.50127       -2.14272        1.14037
H          2.92948       -2.37789        0.74281
H         -2.98796        2.63656       -0.24273
N         -4.18066        0.67039        0.54746
H         -4.90716        1.34279        0.31219
H         -4.61495       -0.25107        0.53879
