27
Coordinates from ORCA-job ./opt_b97-3c_parallel
N         -3.82783       -2.92555       -0.39377
C         -3.32091       -1.90506       -0.30999
C         -2.71128       -0.61210       -0.23326
C         -3.39054        0.49706       -0.63801
N         -2.51150        1.46342       -0.43148
C         -1.30556        1.03686        0.10074
C         -1.38763       -0.38481        0.24850
N         -0.63603       -1.10653        0.62557
C          0.41752       -1.43019        0.57671
C          1.70793       -0.89851        0.24122
C          2.86237       -1.73902        0.34669
N          3.52041       -0.92589        0.00519
C          3.18367        0.01709       -0.45305
C          1.84509        0.47091       -0.18826
C          0.99343        1.63682       -0.23246
N          1.49591        2.32308       -0.94213
H          1.06223        3.19347       -0.63828
H          2.48456        2.39476       -0.70649
C         -0.19191        1.75792        0.44721
C         -0.29048        2.33097        1.39340
N         -0.36725        3.30477        1.99025
H          3.87613        0.48188       -1.17121
N          3.28420       -2.72664        0.59520
H          2.85737       -3.63339        0.77224
H          4.21362       -2.90113        0.21873
H          0.32567       -2.47715        0.90369
H         -4.40877        0.62301       -1.03538
