26
Coordinates from ORCA-job ./opt_b97-3c_parallel
N         -4.43034       -2.60773        0.81464
C         -3.78956       -1.67710        0.63925
C         -3.02455       -0.49389        0.39969
C         -3.52182        0.80430        0.74725
C         -2.74445        1.89980        0.46482
C         -1.71268        1.21413       -0.11259
N         -0.72606        1.94083       -0.53459
C          0.53418        2.16115       -0.32531
C          1.56486        1.15613       -0.20454
C          2.81871        1.43676        0.23251
C          2.97998        0.09186        0.00510
C          4.41220       -0.01422       -0.00896
N          5.54994       -0.12251        0.00213
C          2.31563       -1.08669       -0.23843
N          2.46622       -2.41568       -0.11646
H          1.67193       -2.99905        0.14001
H          3.29696       -2.79498        0.33445
C          1.29365       -0.22099       -0.47799
C          0.16398       -0.51699       -1.32016
N         -0.92989       -1.09066       -0.70306
C         -1.81837       -0.22002       -0.16791
H          0.22130       -1.59706       -1.52283
H          2.98071        1.86789        1.21829
H          0.57633        3.24365       -0.13301
H         -3.17564        2.77614       -0.01392
H         -4.50038        0.89146        1.21006
