28
Coordinates from ORCA-job ./opt_b97-3c_parallel
N          4.46646        1.83850        0.62681
C          3.72564        0.98028        0.49266
C          2.76372       -0.06125        0.29353
C          3.00392       -1.41129        0.68661
N          1.98982       -1.51031        0.23175
C          1.03314       -1.38551       -0.32626
C          1.52527       -0.04166       -0.26925
N          0.94528        1.01186       -0.89437
C         -0.43442        1.12783       -1.07153
N         -0.15013        2.07077       -1.57292
H         -1.11095        2.39909       -1.46571
H          0.34830        2.81208       -2.06484
C         -1.39553        0.66284       -0.09179
C         -2.44081        1.49961        0.40023
N         -2.68989        0.47430        0.78383
C         -2.94725       -0.59454        1.02997
C         -1.76197       -0.65657        0.24222
C         -1.17233       -1.87892       -0.23169
N         -1.53479       -2.90179       -0.02774
H         -1.25185       -3.87079        0.11711
H         -2.53243       -2.92044       -0.23457
C         -0.04815       -1.86828       -0.99665
H          0.05742       -2.46550       -1.90201
H         -3.67353       -1.26748        1.51103
N         -2.73845        2.55809        0.34041
H         -3.69717        2.25003        0.50330
H         -2.53642        3.24822        1.06338
H          3.91926       -1.78243        1.17315
