28
Coordinates from ORCA-job ./opt_b97-3c_parallel
N         -4.47211       -0.16085        0.16886
C         -3.40955        0.11222        0.02087
N         -2.57249       -0.90189       -0.42274
C         -1.30893       -0.37000       -0.48640
N         -0.21150       -0.97774       -0.82365
C          0.90742       -1.47326       -0.39456
N          0.71668       -2.53567       -0.61890
H          1.70131       -2.47235       -0.87783
H          0.45889       -3.51640       -0.72598
C          1.92001       -0.65490        0.21564
C          3.11930       -1.16715        0.77521
C          3.82683       -0.10080        1.23417
C          3.13644        1.01104        0.98663
C          1.95770        0.70850        0.36409
C          0.93442        1.51947       -0.24108
N          1.15248        2.00206       -1.20833
H          2.14199        1.82610       -1.38680
H          0.99839        2.97722       -1.46597
C         -0.40260        1.93335        0.09242
C         -1.48867        0.98232       -0.04425
C         -2.77804        1.31097        0.24826
H         -3.20444        2.24652       -0.10992
H         -0.63562        2.93359        0.44976
H          3.46400        2.01563        1.24562
H          4.79854       -0.14864        1.72119
H          3.39692       -2.21637        0.80625
H         -5.26870        0.47178        0.07284
H         -4.86540       -1.03258        0.52841
