33
Coordinates from ORCA-job ./opt_b97-3c_parallel
N         -3.58883       -3.65729       -0.06298
C         -3.25111       -2.56584       -0.02738
C         -2.87179       -1.18340        0.02961
C         -3.63943       -0.08005       -0.26753
N         -4.69080       -0.06057       -0.61629
H         -5.21269        0.76169       -0.91584
H         -5.30822       -0.86239       -0.73350
C         -2.83845        1.08760       -0.04742
C         -3.17948        2.47088       -0.22099
N         -3.73977        3.33286       -0.72050
C         -1.59691        0.68545        0.38451
N         -0.55912        1.40109        0.70701
C          0.69846        1.66259        0.53963
N          0.51724        2.74584        0.63956
H          1.41466        2.58033        1.09303
H          0.02126        3.42195        1.21631
C          1.73962        0.69132        0.28773
C          3.08456        1.04836        0.01038
C          3.65343       -0.26407       -0.16339
C          5.03066       -0.44380       -0.52346
N          6.12253       -0.56768       -0.83792
C          2.85316       -1.37656       -0.00039
N          3.19884       -2.67059        0.12754
H          2.52979       -3.40913       -0.07764
H          4.11803       -2.98092       -0.18442
C          1.67065       -0.73623        0.25272
C          0.41030       -1.38508        0.49631
N         -0.67376       -1.36966        0.71241
C         -1.55718       -0.75476        0.42965
H          0.45841       -2.48443        0.47064
N          3.53486        2.05613       -0.07076
H          4.39400        2.12541       -0.61422
H          2.90729        2.78034       -0.41624
