32
Coordinates from ORCA-job ./opt_b97-3c_parallel
N         -1.52988       -4.31554       -0.39347
C         -1.22176       -3.21990       -0.29092
C         -0.82444       -1.84399       -0.20446
C          0.62650       -1.66022       -0.15263
C          1.55052       -0.52443       -0.07216
C          1.48123        0.85071       -0.12129
C          0.37832        1.74421       -0.23187
N         -0.83138        1.35562       -0.24040
C         -1.76301        0.49864       -0.09795
C         -3.11148        0.94516        0.07974
C         -3.60387        2.28923        0.17268
N         -3.99948        3.27341        0.59896
C         -3.97876       -0.09918        0.13920
C         -3.22332       -1.17858        0.00909
C         -1.89221       -0.86142       -0.09933
H         -3.62572       -2.18934        0.00933
N         -5.31399       -0.15563        0.28306
H         -5.87477        0.69062        0.19744
H         -5.84314       -0.93016       -0.11306
H          0.15105        2.81903       -0.29206
C          2.78878        1.42934       -0.06607
C          3.67191        0.37592        0.05141
C          5.10495        0.46083        0.15235
N          6.23881        0.53737        0.26292
C          2.94585       -0.87790        0.05317
N          3.47317       -1.84901        0.14341
H          2.98124       -2.38407        0.85718
H          4.44911       -1.80416        0.43107
N          3.06596        2.50199       -0.10607
H          4.06366        2.64347       -0.25748
H          2.59578        3.33271       -0.46056
H          1.14016       -2.61731       -0.16442
