28
Coordinates from ORCA-job ./opt_b97-3c_parallel
N         -2.29760       -3.63837        0.92120
C         -1.76641       -2.64495        0.73274
C         -1.15638       -1.37066        0.48459
C         -1.99556       -0.21806        0.16879
C         -1.62504        1.14995       -0.00581
N         -0.57894        1.80991        0.50550
C          0.43203        1.21563        1.12808
C          1.31874        0.56562        0.22237
C          1.25632       -0.74863       -0.14557
C          2.44688       -1.16833       -0.67900
C          3.22416       -0.04594       -0.60293
C          4.60167       -0.10884       -0.98594
N          5.71080       -0.16227       -1.25459
C          2.61366        1.11071       -0.02233
N          3.04504        2.09987        0.21838
H          3.94944        1.70960        0.48469
H          3.24333        3.01005       -0.19610
H          2.85786       -2.14851       -0.44189
C          0.19352       -1.64615        0.23672
H          0.51357       -2.68933        0.21387
H          0.77293        2.22544        1.40432
N         -2.75683        1.81504       -0.40525
C         -3.76434        0.86394       -0.49256
N         -4.78409        1.17888       -0.78805
H         -5.58840        0.55050       -0.84074
H         -5.15156        2.09972       -1.03534
C         -3.33919       -0.36347       -0.04300
H         -3.95468       -0.94562        0.64218
