25
Coordinates from ORCA-job ./opt_b97-3c_parallel
N          2.87690        2.99608       -0.44812
C          2.27008        2.46078        0.36019
C          1.58175        1.22767        0.09009
C          2.26424        0.01860        0.16061
N          3.53734       -0.07174        0.67739
C          3.96596       -1.37422        0.49672
N          2.97880       -2.07336       -0.18110
C          1.91577       -1.22804       -0.40827
N          0.88564       -1.40315       -1.15342
C         -0.20795       -1.69481       -0.54937
C         -1.14315       -0.69355       -0.14753
C         -2.45111       -0.98400        0.10560
C         -2.98726        0.33597        0.24314
C         -4.30277        0.84191        0.50427
N         -5.24285        0.61296       -0.10328
C         -2.15275        1.40878        0.05705
C         -0.96999        0.73376       -0.11955
C          0.16879        1.54177       -0.13162
H         -0.05531        2.60910       -0.12780
H         -2.42889        2.22868       -0.60599
N         -3.02101       -1.93040        0.15317
H         -3.90379       -1.44685       -0.01948
H         -3.26329       -2.91701        0.23831
H         -0.51826       -2.75047       -0.59285
H          4.98129       -1.52872        0.89587
