35
Coordinates from ORCA-job ./opt_b97-3c_parallel
N         -5.96901       -0.32169        1.19584
C         -4.89752       -0.15400        0.83428
C         -3.54092        0.01992        0.37701
C         -2.54360       -1.02682        0.43631
N         -2.82246       -2.02201        0.84265
H         -1.96546       -2.48344        1.14311
H         -3.54860       -2.27172        1.51156
C         -1.34248       -0.44685       -0.13441
C         -1.61770        0.85076       -0.49876
C         -2.99958        1.13584       -0.23093
N         -3.60293        2.04367       -0.43487
H         -3.37909        2.85849       -1.00209
H         -4.61849        2.00982       -0.35591
C         -0.89574        1.83066       -1.27813
C          0.43566        2.14572       -1.13154
C          1.36959        1.48367       -0.27030
C          2.54686        2.18428        0.13476
C          3.51467        1.44095        0.76628
N          4.55450        2.14311        1.25408
H          5.39180        1.64491        1.55624
H          4.85653        3.00068        0.79697
C          2.93788        0.20925        0.54514
C          3.98704       -0.66922        0.98124
N          4.30925       -1.55206        1.63291
C          1.61271        0.17731       -0.01041
C          1.07937       -0.98858       -0.68233
C          2.09820       -1.93017       -1.08879
N          2.74326       -2.65401       -1.69632
C         -0.27496       -1.31372       -0.61492
N         -0.52552       -2.37723       -0.81910
H          0.11193       -3.13635       -1.05519
H         -1.46853       -2.71010       -1.01226
H          2.65518        3.24215       -0.09256
H          0.74894        3.12052       -1.49435
H         -1.48673        2.60437       -1.75844
