31
Coordinates from ORCA-job ./opt_b97-3c_parallel
N         -3.77296       -3.46549        0.51245
C         -3.56164       -2.35679        0.34105
C         -3.23072       -0.97747        0.14307
C         -3.17688       -0.78480       -1.20554
N         -2.45686        0.28257       -1.47334
C         -1.78719        0.84730       -0.40756
C         -2.06684       -0.28475        0.30642
N         -1.05250       -0.90147        0.88929
C          0.21134       -1.15583        1.24497
N          0.04008       -2.09574        1.79905
H         -0.28796       -2.85972        2.38989
H          1.03245       -2.27862        1.63192
C          1.19218       -0.42276        0.48128
C          2.47965       -0.94743        0.18174
C          2.98328        0.11889       -0.63817
C          4.29343        0.10547       -1.21175
N          5.35185        0.07822       -1.63990
C          2.15100        1.17506       -0.90768
C          1.06988        0.87504       -0.11665
C          0.22945        1.87446        0.32385
N          0.92027        2.82066        0.99250
H          0.49482        3.73079        1.17197
H          1.90765        2.97753        0.79571
C         -1.09483        1.90430        0.12653
C         -1.88318        2.64049        0.39246
N         -2.49515        3.52092        0.78949
H          2.53708        2.18826       -1.01709
N          2.88754       -1.91756        0.52225
H          3.11157       -2.60318       -0.20073
H          3.78544       -1.53414        0.82410
H         -3.69008       -1.08298       -2.13334
