26
Coordinates from ORCA-job ./opt_b97-3c_parallel
N         -5.67639       -0.63655       -0.86888
C         -4.56383       -0.53833       -0.63382
C         -3.18215       -0.37393       -0.31855
C         -2.51022       -1.24362        0.58041
C         -1.22731       -0.65350        0.64865
C         -0.29614       -1.10705        1.63984
N          1.03099       -1.14484        1.40789
C          1.79645       -0.66244        0.40427
N          3.04881       -1.17500        0.15297
C          3.64940       -0.37051       -0.80974
N          4.67026       -0.70427       -1.09251
H          5.34277       -0.19445       -1.67353
H          5.15410       -1.58082       -0.87526
C          2.82912        0.68158       -1.15530
C          1.69784        0.51520       -0.40714
N          0.86599        1.62765       -0.21925
C         -0.34995        1.54341        0.35067
N         -0.38029        2.63894        0.17934
H         -0.07293        3.59272       -0.03296
H         -1.33912        2.76439        0.51571
C         -1.20813        0.48708       -0.11237
C         -2.40161        0.65233       -0.77990
H         -2.82751        1.63388       -0.98276
H          3.23895        1.67129       -1.35619
H         -0.06844       -1.81858        2.45010
H         -2.90611       -2.09385        1.12926
