31
Coordinates from ORCA-job ./opt_b97-3c_parallel
N          1.96068        4.32388        0.37694
C          1.58411        3.24985        0.26720
C          1.06699        1.91349        0.12465
C         -0.36282        1.91922       -0.02109
C         -1.32870        0.86224       -0.07701
C         -2.67262        1.33598        0.00093
C         -3.55338        0.21684       -0.07311
C         -4.96410        0.47219       -0.00010
N         -6.09060        0.65135        0.07709
C         -2.75718       -0.90693       -0.21603
N         -3.37762       -1.82312       -0.29492
H         -2.91178       -2.41289        0.39334
H         -4.37663       -2.00730       -0.21820
C         -1.36253       -0.49806       -0.22359
C         -0.36237       -1.51761       -0.46108
N         -0.62150       -2.57277       -0.68761
H         -0.12924       -3.34664       -1.12999
H         -1.56051       -2.56241       -1.08284
C          1.02594       -1.51580       -0.43227
C          1.98968       -0.50257       -0.07349
C          1.98326        0.85959        0.17630
C          3.30431        1.13497        0.45822
C          4.05458        0.05497        0.35649
C          3.27365       -0.99722        0.01196
C          4.11989       -2.14907       -0.09525
N          4.25604       -3.27021       -0.27178
H          5.12501        0.02869        0.55953
H          3.72372        2.08760        0.77337
H          1.54607       -2.45896       -0.63437
H         -2.98432        2.37086        0.10972
H         -0.80667        2.91237        0.01285
