27
Coordinates from ORCA-job ./opt_b97-3c_parallel
N         -1.99166       -3.23584        1.45108
C         -1.49663       -2.30175        1.02262
C         -0.91985       -1.12737        0.44170
C         -1.73908        0.03902        0.16716
N         -3.07414        0.12079        0.48559
C         -3.49289        1.38890        0.10818
N         -2.40183        2.06338       -0.44280
C         -1.28305        1.24965       -0.42690
N         -0.06011        1.46465       -0.81573
C          1.22656        1.62007       -0.70882
C          2.09690        0.62977       -0.12621
C          3.43840        0.75150        0.11286
N          3.93972       -0.34292        0.70731
C          2.87237       -1.23584        0.85052
C          1.66969       -0.65834        0.30522
C          0.42761       -1.22992        0.18917
N          0.71064       -2.04452       -0.84666
H          1.65781       -2.40640       -0.97347
H          0.09953       -2.84362       -1.03355
H          3.22906       -2.16662        1.32093
N          4.38789        1.32797        0.07738
H          5.30744        0.88990        0.17805
H          4.60830        2.30949       -0.10344
H          1.47148        2.63211       -1.07623
N         -4.54997        1.63760        0.31741
H         -5.32680        0.98872        0.46126
H         -4.95423        2.56478        0.46640
