27
Coordinates from ORCA-job ./opt_b97-3c_parallel
N         -1.17671       -3.70050       -0.84895
C         -0.96346       -2.63982       -0.48434
C         -0.66024       -1.32637       -0.01679
C         -1.63442       -0.25397        0.01129
N         -2.93508       -0.39615       -0.40907
C         -3.54395        0.83636       -0.22083
N         -2.59481        1.72185        0.29223
C         -1.38336        1.07564        0.45468
N         -0.21399        1.50261        0.83756
C          1.02103        1.76601        0.52434
N          1.00437        2.86067        0.65100
H          0.66265        3.79244        0.41076
H          1.72344        3.01007        1.36033
C          1.95507        0.75071        0.09906
C          3.28442        1.01018       -0.34742
N          3.79480       -0.20312       -0.62973
C          2.94292       -1.22456       -0.40627
N          3.56435       -2.10236       -0.67083
H          4.58459       -2.13821       -0.60322
H          3.30332       -3.01609       -1.04821
C          1.71013       -0.65370        0.07053
C          0.60032       -1.31354        0.52036
H          0.73701       -1.89427        1.43337
H          4.02123        1.80713       -0.53738
N         -4.60756        0.85515       -0.52345
H         -5.30446        0.10868       -0.47333
H         -5.12001        1.66693       -0.87548
