29
Coordinates from ORCA-job ./opt_b97-3c_parallel
N         -0.91708       -4.07431        0.72863
C         -0.65704       -3.01250        0.39655
C         -0.29754       -1.69775       -0.03598
C          1.04862       -1.18158        0.03364
C          1.32579        0.16140       -0.40249
N          0.73422        1.01627       -0.80856
C         -0.13381        1.64347       -0.51615
N          0.22037        2.68999       -0.58492
H         -0.35246        2.68800       -1.42646
H          1.13647        3.04733       -0.84956
C         -1.47901        1.35881       -0.07662
C         -2.45204        2.19871        0.35226
C         -3.49518        1.43160        0.63985
C         -3.26788        0.13631        0.42140
N         -4.15968       -0.83869        0.65188
H         -4.98046       -0.65385        1.22539
H         -3.84043       -1.78362        0.85816
C         -1.99262        0.02531       -0.05310
C         -1.35411       -1.04823       -0.60360
H         -1.67697       -1.37129       -1.59061
H         -4.43626        1.82358        1.01918
H         -2.38989        3.28005        0.44736
C          2.73590        0.19851       -0.10032
C          3.57383        1.34655       -0.27978
N          4.24309        2.26644       -0.38934
C          3.16932       -0.98222        0.42399
C          2.14991       -1.81870        0.51042
H          2.19238       -2.83835        0.88644
H          4.19166       -1.20208        0.72286
