29
Coordinates from ORCA-job ./opt_b97-3c_parallel
N         -1.95954       -3.70125       -0.11961
C         -1.59988       -2.62870        0.03743
C         -1.10876       -1.30210        0.25799
C          0.28424       -1.11067        0.55997
N          0.74896       -1.52994        1.47514
H          1.26327       -1.40516        2.34716
H          0.14443       -2.33913        1.62405
C          1.07614       -0.30333       -0.33986
C          1.48559        0.96832       -0.10983
C          2.80836        1.03375       -0.47474
N          3.16038       -0.15069       -1.12283
C          2.09085       -0.93716       -0.99322
N          2.66637       -1.78637       -1.40914
H          2.11470       -2.62876       -1.25281
H          3.51287       -2.08573       -1.89272
H          3.52856        1.86480       -0.42191
C          0.82116        1.89057        0.59333
N          1.50298        2.92898        1.10989
H          2.31703        2.76424        1.70021
H          0.99095        3.70663        1.52602
C         -0.50040        1.86083        0.82473
C         -1.42377        1.21976        0.03249
N         -2.40307        1.94257       -0.62126
C         -3.32788        1.14688       -1.15249
C         -3.00068       -0.10420       -0.84432
C         -1.84200       -0.12945       -0.15217
H         -3.58340       -0.97798       -1.12682
H         -4.22423        1.43793       -1.72163
H         -0.90990        2.64307        1.46185
