25
Coordinates from ORCA-job ./opt_b97-3c_parallel
N         -4.20939       -2.08750       -0.00117
C         -3.53827       -1.16227       -0.00094
C         -2.66509       -0.02668       -0.00083
C         -3.12268        1.24987       -0.00086
C         -2.09028        2.07404       -0.00072
C         -0.92188        1.36813       -0.00056
C          0.31692        2.09599       -0.00015
C          1.64070        1.73060        0.00008
C          2.29689        0.45590        0.00001
C          3.71987        0.50885        0.00026
C          4.22010       -0.74435        0.00035
C          3.18604       -1.57177        0.00003
C          1.99563       -0.88764       -0.00020
C          0.77024       -1.62750       -0.00027
C         -0.54581       -1.24226       -0.00043
C         -1.22306       -0.03873       -0.00059
H         -1.18595       -2.11697       -0.00041
H          0.93302       -2.70149       -0.00021
H          3.27639       -2.65583       -0.00000
H          5.27130       -1.02131        0.00057
H          4.31287        1.41828        0.00053
H          2.32399        2.57492        0.00028
H          0.15605        3.17021       -0.00017
H         -2.16959        3.15891       -0.00074
H         -4.16866        1.54776       -0.00101
