30
Coordinates from ORCA-job ./opt_b97-3c_parallel
N         -4.51609       -1.55628        1.29888
C         -3.71950       -0.83053        0.91990
C         -2.68972        0.04518        0.45151
C         -3.00804        1.30158       -0.13935
C         -1.95563        2.02714       -0.62388
C         -0.92447        1.21682       -0.21840
C         -1.32881        0.03332        0.35373
N         -0.75723       -1.08167        0.68791
C         -0.12443       -1.71882       -0.25220
N         -0.70083       -2.59076       -0.61011
H         -1.53962       -2.75314       -0.05260
H         -0.83355       -3.11131       -1.47623
C          1.19256       -1.29077       -0.65008
C          2.03830       -2.01956       -1.43130
N          2.85244       -1.71478       -0.43869
C          2.99157       -0.89825        0.66906
N          3.86013       -0.94270        1.34861
H          4.63354       -1.38098        1.84805
H          3.58404       -0.13007        1.90057
C          1.90103       -0.36262        0.04777
C          1.54503        0.92076        0.20292
N          2.19345        1.78371        1.01482
H          3.10350        2.14220        0.72668
H          1.68407        2.59569        1.36536
C          0.47609        1.49014       -0.46086
C          0.87515        2.53873       -1.35661
N          1.22533        3.35111       -2.07928
H          2.25972       -2.78826       -2.18723
H         -1.91448        3.10455       -0.47844
H         -4.04247        1.62106       -0.22595
