29
Coordinates from ORCA-job ./opt_b97-3c_parallel
N          4.37897        0.70536       -0.71692
C          3.40409        0.30274       -0.39781
N          2.54781        1.12426        0.23079
C          1.42230        0.49428        0.55473
N          0.38091        0.86339        1.23217
C         -0.74517        1.27076        0.74509
N         -0.73976        2.31304        1.10708
H         -1.73316        2.40281        0.88667
H         -0.49044        3.16540        1.61027
C         -1.58059        0.42913       -0.07079
C         -2.75434        0.82532       -0.66617
C         -3.30454       -0.30752       -1.20694
C         -2.53991       -1.37108       -0.98047
C         -1.42414       -0.97270       -0.31504
C         -0.58381       -1.80874        0.51736
N          0.78803       -1.89990        0.26175
C          1.64790       -0.81637        0.03717
C          2.89302       -0.96833       -0.49889
H          3.50625       -1.83811       -0.26772
N         -0.57435       -2.90902        0.64482
H         -1.56936       -3.05762        0.83231
H         -0.15621       -3.83671        0.74631
H         -2.75943       -2.38299       -1.31523
H         -4.25355       -0.34543       -1.74368
N         -3.32039        1.76854       -0.73760
H         -4.33168        1.63150       -0.73402
H         -3.17245        2.69552       -1.14057
H          4.73711        1.66081       -0.72067
H          5.15174        0.11890       -1.03447
