28
Coordinates from ORCA-job ./opt_b97-3c_parallel
N         -3.76913       -2.93390       -0.81141
C         -3.15274       -1.98408       -0.66048
C         -2.39018       -0.79532       -0.42744
C         -2.91566        0.46565       -0.52640
C         -1.89438        1.26366       -0.05823
C         -2.23950        2.64456        0.08087
N         -2.62086        3.50615        0.72793
C         -0.75257        0.55924        0.24257
C         -1.02356       -0.78597       -0.02949
C         -0.25563       -1.95446        0.30636
C          1.16965       -2.04401        0.56131
C          2.25608       -1.15659        0.17271
C          3.52555       -1.62781        0.02161
C          4.26863       -0.66381       -0.50690
C          3.57337        0.44755       -0.70291
C          2.30840        0.21726       -0.25634
C          1.36978        1.24949        0.07605
N          1.45872        2.34132       -0.07827
H          1.09515        3.27626        0.09793
H          2.43606        2.34531        0.20774
C          0.30770        1.08526        0.89790
H          0.42440        0.97236        1.97352
H          3.95442        1.37859       -1.11631
H          5.32330       -0.77312       -0.74997
H          3.86864       -2.63074        0.26668
H          1.49300       -3.04954        0.81306
H         -0.78989       -2.89854        0.34174
H         -3.95092        0.65582       -0.24611
