28
Coordinates from ORCA-job ./opt_b97-3c_parallel
N         -5.34053        0.03746        0.09897
C         -4.19931        0.00626        0.03971
C         -2.75776       -0.03736        0.00501
C         -1.93187       -1.14128        0.01129
N         -2.38616       -2.15310        0.04297
H         -3.37651       -2.36687       -0.06394
H         -1.87102       -2.89815       -0.42144
C         -0.57407       -0.66527       -0.01698
C          0.42618       -1.70129        0.01068
C          1.79868       -1.68374        0.07429
C          2.81744       -0.66787        0.08623
N          4.05058       -1.09589        0.18770
C          4.73645        0.00075        0.11151
C          4.06872        1.12526       -0.03098
C          2.77423        0.75959       -0.04717
C          1.74716        1.75327       -0.17274
C          0.37735        1.71029       -0.15005
C         -0.56347        0.70504       -0.06444
C         -1.94080        1.15242       -0.04315
N         -2.41470        2.15696       -0.05692
H         -3.38072        2.26673        0.24681
H         -1.88198        2.91061        0.37215
H         -0.02657        2.71487       -0.22219
H          2.16330        2.75239       -0.26465
H          4.48047        2.12860       -0.11307
H          5.81604       -0.19833        0.18146
H          2.23476       -2.67756        0.14006
H          0.03280       -2.71206        0.02729
