29
Coordinates from ORCA-job ./opt_b97-3c_parallel
N          1.76656        3.92563        0.29413
C          1.28512        2.88895        0.28472
C          0.68158        1.59024        0.31887
C          1.32161        0.69014        1.10380
C          1.94276       -0.04414        0.14458
C          1.46620       -1.21843       -0.31465
C          2.52762       -1.88651       -1.00846
N          2.98085       -0.88836       -0.76847
C          3.28430        0.09334       -0.32222
N          4.28450        0.54014       -0.42323
H          5.03817       -0.13259       -0.54949
H          4.41035        0.96413        0.49259
H          2.75065       -2.84288       -1.50449
C          0.20314       -1.85653        0.02343
N          0.29511       -2.96321       -0.04227
H         -0.52680       -3.51711        0.19325
H          1.10513       -3.48128        0.29256
C         -1.03629       -1.12674        0.33493
C         -2.15045       -1.98074        0.66619
N         -2.74968       -2.41020        1.54115
C         -1.39847        0.17302       -0.06086
C         -0.63043        1.38554       -0.21386
N         -1.53040        1.83085       -0.68405
C         -2.63090        1.90463       -0.81864
C         -2.67982        0.54460       -0.38030
C         -4.08406        0.31731       -0.56680
N         -4.71807       -0.41449       -1.17515
H         -3.15502        2.79473       -1.19938
H          1.84570        0.98864        2.00936
