31
Coordinates from ORCA-job ./opt_b97-3c_parallel
N         -2.95346       -3.30395       -1.48462
C         -2.27701       -2.46045       -1.11520
C         -1.42936       -1.41795       -0.61387
C         -0.12754       -1.72639       -0.98484
C          1.01891       -1.15354       -0.32299
C          1.07663        0.24838       -0.02335
C          0.27039        1.06915       -0.91526
N          0.85917        1.73877       -1.58012
H          0.64259        2.73242       -1.64163
H          1.86186        1.64619       -1.73199
C         -0.95509        1.51758       -0.42610
C         -1.52576        2.79407       -0.77529
N         -1.96390        3.81964       -1.02644
C         -1.63237        0.70744        0.55742
C         -2.74259        1.15783        1.33342
C         -3.37525        0.07718        1.85584
C         -2.77762       -1.02724        1.42422
C         -1.71326       -0.72235        0.62021
H         -3.08280       -2.03653        1.69102
H         -4.24184        0.11086        2.51181
H         -3.09348        2.18454        1.36508
C          2.30173        0.62765        0.45013
C          2.72396       -0.64893        0.19051
C          4.12939       -0.90701        0.07793
N          5.25543       -1.09481        0.01571
C          2.17694       -1.84853       -0.17466
H          2.22123       -2.71171        0.48697
N          2.80382        1.72604        1.03786
H          3.81302        1.83892        1.11905
H          2.40267        2.63973        0.83565
H          0.06304       -2.62266       -1.57356
