32
Coordinates from ORCA-job ./opt_b97-3c_parallel
N         -4.18050       -3.47263       -0.30141
C         -3.71139       -2.43171       -0.24150
C         -3.09490       -1.14060       -0.13988
C         -3.87525        0.06757       -0.05918
C         -2.92087        1.14175        0.04214
C         -3.29209        2.52207        0.15439
N         -3.60297        3.61590        0.27135
C         -1.64879        0.62472        0.03094
N         -0.53688        1.23619        0.12761
C          0.66706        1.61181       -0.04898
C          1.74611        0.68701       -0.06931
C          1.71047       -0.74958       -0.02848
C          3.08943       -1.17594        0.00242
C          3.91279        0.01200       -0.03191
C          5.34969        0.03413       -0.00279
N          6.49131        0.05859        0.05370
C          3.08645        1.18658       -0.08671
N          3.42427        2.24095       -0.11304
H          3.07185        3.17756       -0.30004
H          4.44068        2.29415       -0.15791
N          3.55402       -2.18132        0.04441
H          4.54602       -2.30278        0.24201
H          3.04357       -2.66338        0.78160
C          0.72415       -1.74406       -0.04477
C         -0.73133       -1.80173       -0.10516
C         -1.76645       -0.78305       -0.08438
H         -1.09821       -2.82165       -0.15706
H          1.11398       -2.75676       -0.04329
H          0.51687        2.70162       -0.05940
N         -4.97883        0.16516       -0.06295
H         -5.41808        0.94029        0.43080
H         -5.58535       -0.64475        0.05417
