29
Coordinates from ORCA-job ./opt_b97-3c_parallel
N         -3.69269       -3.23012       -0.36677
C         -3.00414       -2.32078       -0.30533
C         -2.19408       -1.14368       -0.21275
C         -3.06378       -0.09306       -0.24618
N         -2.42822        1.06230       -0.13166
C         -1.08520        0.68250       -0.04411
C         -0.91091       -0.68118       -0.07293
N         -0.44267       -1.12911        0.82277
C          0.56064       -1.54173        0.63844
C          1.80639       -1.02590        0.15799
C          2.96866       -1.83891        0.01573
N          3.29026       -0.80626       -0.27241
C          3.51790        0.27180       -0.48832
C          2.11961        0.31138       -0.17275
C          1.34568        1.55969       -0.13978
N          2.00257        2.44700       -0.26129
H          1.71603        3.41942       -0.15155
H          2.98575        2.41041        0.00503
C         -0.10762        1.76433       -0.00408
C         -0.61736        3.11373        0.06085
N         -1.06268        4.16423        0.11787
H          4.33896        0.94179       -0.78717
N          3.49030       -2.80693        0.07765
H          4.47661       -3.02178       -0.05011
H          3.04063       -3.66245        0.39472
H          0.71031       -2.61346        0.84123
N         -4.01744        0.47241       -0.30876
H         -4.50031        1.35905       -0.46015
H         -4.72137       -0.25470       -0.44521
