32
Coordinates from ORCA-job ./opt_b97-3c_parallel
N         -5.45959       -0.03278        1.19424
C         -4.37207       -0.02346        0.84840
C         -3.00640       -0.05281        0.40149
C         -2.23754       -1.12651       -0.01776
N         -2.61375       -2.16955       -0.04524
H         -2.46054       -3.17747       -0.06445
H         -3.60012       -2.05188        0.19220
C         -0.98749       -0.65679       -0.33981
C          0.02510       -1.58149       -0.82449
N          1.33506       -1.61116       -0.48062
C          2.19287       -0.67475       -0.02623
N          3.38559       -0.98592        0.57922
C          4.10045        0.19339        0.72037
N          3.37056        1.21319        0.12261
C          2.19121        0.69828       -0.37427
C          1.25242        1.28972       -1.15942
C          0.07524        1.61484       -0.56289
N          0.23636        2.70973       -0.57712
H         -0.78054        2.79698       -0.58494
H          0.59050        3.61100       -0.89916
C         -0.97008        0.70422       -0.17311
C         -2.18961        1.14345        0.30086
N         -2.53502        2.16951        0.53322
H         -2.23964        3.09879        0.82719
H         -3.55483        2.17162        0.57082
H          1.36577        1.30352       -2.24433
N          5.09983        0.19378        1.19197
H          5.62907       -0.47876        1.74995
H          5.74688        0.96195        1.00767
N          0.33010       -2.60956       -1.08370
H          0.52831       -3.61056       -1.07665
H         -0.63325       -2.51795       -1.40896
