32
Coordinates from ORCA-job ./opt_b97-3c_parallel
N         -5.69603       -0.80795        1.20116
C         -4.63256       -0.62331        0.82863
C         -3.30611       -0.34821        0.36974
C         -2.30357       -1.36745        0.42763
C         -1.07007       -0.81573       -0.07805
C         -1.35112        0.47588       -0.45037
C         -0.62399        1.38035       -1.30086
N          0.59421        1.81097       -0.94882
C          1.57495        1.27010       -0.21128
C          2.60403        2.18392        0.15438
C          3.62821        1.40917        0.77788
N          3.25558        0.11987        0.74435
C          1.99278        0.01184        0.14542
C          1.44861       -1.25594       -0.07694
C          2.42365       -2.32787        0.02086
N          3.42016       -2.80041       -0.27978
C          0.11448       -1.65565       -0.25040
N         -0.18907       -2.72513       -0.30953
H          0.40284       -3.53440       -0.11595
H         -1.03134       -3.10617       -0.74207
N          4.62530        1.44474        1.26002
H          5.24372        0.67133        1.51499
H          5.13031        2.28447        1.55041
H          2.61921        3.25673       -0.01968
N         -0.70702        2.33639       -1.85297
H         -0.66138        2.85902       -2.73023
H         -1.70676        2.28598       -1.63372
C         -2.74036        0.76958       -0.20972
N         -3.30924        1.69372       -0.43400
H         -4.19914        1.25224       -0.67631
H         -3.55382        2.45090        0.20721
H         -2.46428       -2.37495        0.80357
