29
Coordinates from ORCA-job ./opt_b97-3c_parallel
N         -4.48210       -0.59799       -0.83037
C         -3.48399       -0.27213       -0.47392
N         -2.71092       -1.18930        0.22899
C         -1.54977       -0.55791        0.61309
N         -0.51135       -0.91110        1.31189
C          0.67734       -1.26127        0.92101
N          0.73254       -2.30812        1.26681
H          0.28873       -3.22784        1.27111
H          1.38318       -2.31302        2.05347
C          1.51655       -0.43408        0.08507
C          2.66709       -0.83775       -0.54054
N          3.21175        0.13545       -1.28399
C          2.38430        1.24743       -1.11400
C          1.28369        0.93985       -0.23344
C          0.43981        1.86668        0.33943
N          1.15020        2.88569        0.84903
H          2.04607        3.17238        0.45494
H          0.68499        3.72938        1.18950
C         -0.89097        1.80015        0.45606
C         -1.67132        0.74638        0.06030
C         -2.84170        0.93467       -0.61513
H         -3.38627        1.87637       -0.54816
H         -1.39496        2.62447        0.96162
H          2.81524        2.11242       -1.64360
N          3.47121       -1.54822       -0.82285
H          4.45140       -1.32489       -0.62919
H          3.50285       -2.46914       -1.26563
H         -5.28474        0.03638       -0.81510
H         -4.86857       -1.48841       -1.15237
