27
Coordinates from ORCA-job ./opt_b97-3c_parallel
N         -1.33491       -3.42491        0.07135
C         -0.81532       -2.40636        0.11570
C         -0.12124       -1.15238        0.18326
C          1.22965       -1.49509        0.35195
C          2.44693       -0.73677        0.10403
C          2.57312        0.66050       -0.10640
C          1.76104        1.74582        0.32405
C          0.73345        1.58380        1.18379
C         -0.36767        1.36268        0.43490
C         -1.48443        2.20594        0.17212
C         -2.60081        1.63300       -0.38030
C         -2.13527        0.33969       -0.41634
C         -3.05737       -0.63427       -0.92091
N         -3.82548       -1.38581       -1.31173
C         -0.77737        0.13792        0.02879
N         -3.76258        2.21810       -0.04036
H         -3.90837        3.21059       -0.21502
H         -4.64311        1.73735       -0.21615
H         -1.46868        3.24432        0.49205
H          0.67951        2.15576        2.10712
H          2.12791        2.75085        0.13638
C          3.91380        0.86445       -0.50365
N          4.44464       -0.36923       -0.47251
C          3.64460       -1.36190       -0.09333
H          4.07859       -2.37245       -0.06006
H          4.85809        1.35801       -0.77945
H          1.46837       -2.55070        0.48483
