30
Coordinates from ORCA-job ./opt_b97-3c_parallel
N          4.76658        1.71290       -0.26378
C          4.04412        0.83068       -0.18293
C          3.13501       -0.27359       -0.12334
C          3.52488       -1.56805       -0.24792
C          2.46095       -2.35152       -0.16711
C          1.34381       -1.58848       -0.00973
N          0.24399       -2.25031        0.48186
C         -1.04511       -1.79714        0.63247
C         -1.71712       -0.72020       -0.03724
C         -3.05755       -0.86786       -0.29785
C         -3.56822        0.38457       -0.47458
C         -2.64813        1.32631       -0.29528
N         -2.97449        2.62914       -0.38258
H         -3.81351        2.92323       -0.87512
H         -2.24951        3.33110       -0.52451
C         -1.46113        0.68805       -0.02007
C         -0.26105        1.35789        0.43772
N         -0.26280        2.44919        0.64528
H          0.35324        3.15990        1.03608
H         -1.17841        2.57480        1.07332
C          1.08016        0.97527        0.41446
C          1.70749       -0.20466        0.07726
H          1.81069        1.76672        0.61674
H         -4.61335        0.60325       -0.68877
N         -3.81760       -1.67132       -0.29922
H         -3.23869       -2.37718       -0.75031
H         -4.73808       -1.72494       -0.72579
H         -1.15269       -2.85732        0.90011
H          2.48705       -3.44030       -0.18254
H          4.55399       -1.91111       -0.34364
