31
Coordinates from ORCA-job ./opt_b97-3c_parallel
N          2.26049        3.67077        0.07170
C          1.77739        2.63607        0.04012
C          1.21761        1.30996       -0.00937
C         -0.15924        1.42568       -0.09208
C         -1.21759        0.53138       -0.15601
C         -1.44446       -0.82274       -0.38226
C         -2.79630       -1.08431       -0.45664
C         -3.40137        0.09462       -0.18688
C         -4.83319        0.16285       -0.10813
N         -5.96940        0.21012       -0.01071
C         -2.50031        1.18043       -0.00536
N         -2.90119        2.19376        0.20332
H         -2.41871        2.89868        0.75717
H         -3.89668        2.40030        0.27248
H         -3.21976       -2.01576       -0.08647
C         -0.50718       -1.90751       -0.61436
N         -0.89000       -2.90316       -0.92083
H         -1.79852       -2.83519       -1.37823
H         -0.52456       -3.82397       -1.15903
C          0.84700       -2.11529       -0.39491
C          1.88815       -1.23350        0.04113
C          3.15796       -1.83478        0.28822
C          4.08071       -0.78576        0.57923
N          3.41110        0.41922        0.48744
C          2.07811        0.17163        0.17473
N          5.14382       -0.63014        0.83209
H          5.81132       -1.37577        1.02891
H          5.65348        0.24472        0.95684
H          3.39142       -2.89488        0.25075
H          1.25467       -3.12527       -0.51797
H         -0.50004        2.46077       -0.07606
