29
Coordinates from ORCA-job ./opt_b97-3c_parallel
N          3.18072        3.36297       -0.13051
C          2.52478        2.42611       -0.09275
C          1.72581        1.23596       -0.01427
C          0.41489        1.62574        0.29557
C         -0.88964        0.97584        0.16679
C         -1.98613        1.77899        0.13478
C         -2.77793        0.68407       -0.08693
C         -4.07839        1.26883       -0.25935
N         -5.12587        1.71510       -0.36270
C         -2.55571       -0.66237       -0.22377
N         -3.45096       -1.66635       -0.22487
H         -3.21578       -2.56264       -0.64709
H         -4.43276       -1.47401       -0.41543
C         -1.23980       -0.41607        0.04600
C         -0.34203       -1.45231        0.47129
N         -0.55457       -2.53575        0.57067
H         -0.19536       -3.48328        0.67245
H         -1.56261       -2.58020        0.71254
C          0.89418       -1.32346        1.00262
C          1.88595       -1.26812        0.08438
N          2.78442       -2.17283       -0.21139
C          3.75502       -1.51010       -0.74800
C          3.54757       -0.22363       -0.86833
C          2.31188       -0.04105       -0.36014
H          4.22257        0.52025       -1.28574
H          4.73426       -1.84188       -1.12600
H          1.08344       -1.29016        2.07449
H         -2.18554        2.47362        0.94978
H          0.27721        2.69088        0.48465
