26
Coordinates from ORCA-job ./opt_b97-3c_parallel
N         -6.12301       -0.69061        0.00839
C         -4.99675       -0.49600        0.00476
C         -3.59679       -0.21602       -0.00350
C         -2.63128       -1.24775        0.00738
C         -1.37918       -0.56313        0.00049
C         -0.27139       -1.47453        0.01179
C          1.14266       -1.27428        0.00747
C          1.94148       -0.08011        0.00209
C          1.74701        1.34008        0.00160
C          2.97430        1.93973       -0.00007
C          3.93444        1.02953       -0.00016
C          3.37486       -0.20619        0.00150
C          4.12987       -1.42408        0.00363
N          4.70550       -2.41017        0.00592
H          5.00154        1.23932       -0.00297
H          3.14782        3.01345       -0.00235
C          0.57714        2.17131        0.00096
C         -0.77963        1.95470       -0.00752
C         -1.62908        0.79670       -0.01327
C         -2.98818        0.99681       -0.04571
H         -3.49486        1.95387        0.05872
H         -1.34598        2.88165       -0.01349
H          0.84317        3.22452        0.00043
H          1.68782       -2.21165        0.01114
H         -0.54227       -2.52684        0.01776
H         -2.81364       -2.31831        0.02216
