28
Coordinates from ORCA-job ./opt_b97-3c_parallel
N         -4.82181       -1.44133       -1.05300
C         -4.03834       -0.88116       -0.44148
C         -3.02154       -0.18894        0.28802
C         -3.41985        1.10302        0.45858
N         -2.29504        1.67869        0.09204
C         -1.13559        1.06523       -0.32899
N         -0.02714        1.69716       -0.56296
C          1.25711        1.72635       -0.37464
N          1.39889        2.79008       -0.62745
H          1.08030        3.66352       -0.20641
H          1.98007        3.06036       -1.42181
C          2.02802        0.58282        0.05090
C          3.43858        0.69783        0.25623
N          3.80720       -0.51526        0.65630
C          2.72533       -1.29396        0.69255
N          3.16997       -2.25443        1.01906
H          4.12599       -2.57050        0.84307
H          2.72589       -3.02722        1.51776
C          1.44767       -0.72634        0.29874
C          0.33280       -1.31483       -0.40749
N          0.54180       -1.87180       -1.33681
H         -0.26173       -2.42704       -1.63542
H          1.33452       -2.25048       -1.85602
C         -0.98573       -1.28207       -0.02862
C         -1.69592       -0.14504       -0.03217
H         -1.47765       -2.21939        0.23200
H          4.24115        1.44888        0.18920
H         -4.37844        1.51934        0.80840
