28
Coordinates from ORCA-job ./opt_b97-3c_parallel
N         -4.50473       -2.01874        0.19005
C         -3.83898       -1.09129        0.18153
C         -2.94714        0.03230        0.15457
C         -3.35208        1.32979        0.58633
N         -2.29690        1.43327        0.24517
C         -1.24734        1.44600       -0.12120
C         -1.65223        0.13644       -0.26846
N         -1.06264       -0.93473       -0.85108
C          0.30692       -1.16969       -0.84538
N         -0.08341       -2.11148       -1.28530
H          0.35833       -2.38129       -2.16688
H         -0.76244       -2.85590       -1.10081
C          1.25660       -0.50559        0.02073
C          2.37479       -1.23721        0.53474
N          3.32360       -0.32969        0.83323
C          2.98299        0.93329        0.51773
N          3.87591        1.54848        0.74188
H          3.90101        2.56733        0.66751
H          4.81272        1.28719        1.05680
C          1.65280        0.86442       -0.01689
C          1.07008        1.92942       -0.66382
C         -0.26452        2.06344       -0.96712
H         -0.58270        3.00052       -1.41925
H          1.70001        2.78500       -0.89530
N          2.85220       -2.21217        0.73110
H          3.84382       -2.43156        0.83485
H          2.35244       -3.02104        1.10107
H         -4.31914        1.68094        0.97874
