27
Coordinates from ORCA-job ./opt_b97-3c_parallel
N         -2.18432       -2.55369       -1.90219
C         -1.61244       -1.87990       -1.17713
C         -0.91356       -1.00011       -0.28223
C         -1.44959        0.30143        0.03730
C         -0.80545        1.36035        0.62681
N          0.44175        1.59337        0.88368
C          1.32357        1.43713       -0.05886
N          1.64586        2.44634       -0.37148
H          1.02443        3.12129       -0.81170
H          2.37477        2.22407       -1.04527
C          1.73690        0.12558       -0.49241
C          2.79534       -0.10964       -1.31696
N          3.10893       -1.00923       -0.40675
C          2.53801       -1.62554        0.69055
C          1.43180       -1.02529        0.16699
C          0.20547       -1.54336        0.31278
N         -0.06298       -2.63867        1.05469
H          0.67311       -3.31430        1.24867
H         -0.92877       -3.15323        0.90429
H          2.79204       -2.36812        1.46169
H          3.82262       -0.32343       -1.64760
C         -1.71769        2.38192        0.66295
C         -2.86631        2.02249        0.09577
C         -2.74985        0.74164       -0.33192
H         -3.49604        0.14275       -0.84432
H         -3.75351        2.64400        0.00563
H         -1.53268        3.35759        1.10651
