29
Coordinates from ORCA-job ./opt_b97-3c_parallel
N          2.03769        3.59704       -0.43829
C          1.53490        2.57896       -0.30813
C          0.87463        1.29654       -0.13796
C          1.70792        0.15835       -0.11093
N          3.04513        0.28022       -0.22354
C          3.18797       -0.78707        0.04089
N          2.76297       -1.77925        0.29553
C          1.52465       -1.27721        0.17318
C          0.45886       -2.17923        0.17465
C         -0.91189       -2.04228        0.01850
C         -1.77784       -0.93523       -0.04087
C         -3.15351       -1.22523       -0.11436
C         -3.81076        0.04354        0.01616
C         -2.88190        1.12989        0.14160
N         -3.20243        2.45751        0.23928
H         -4.16858        2.71188        0.41522
H         -2.48085        3.11929        0.50108
C         -1.60245        0.54423        0.06936
C         -0.50947        1.43524        0.01238
H         -0.79984        2.48270        0.03431
H         -4.88913        0.16723        0.02262
N         -3.74741       -2.45452       -0.21560
H         -4.74581       -2.49676       -0.38962
H         -3.18208       -3.24870       -0.49324
H         -1.38384       -3.02004       -0.00496
H          0.75763       -3.21990        0.29176
N          4.54805       -0.91770        0.02551
H          4.97971       -1.80420        0.25807
H          5.13894       -0.10596       -0.11263
