24
Coordinates from ORCA-job ./opt_b97-3c_parallel
N          4.83826        1.20035        0.54160
C          3.85261        0.67299        0.30875
C          2.63723       -0.02266        0.02191
C          3.00268       -1.25517       -0.42648
N          1.88394       -1.93375       -0.30516
C          0.87205       -1.12539        0.16172
N         -0.36868       -1.44857        0.36597
C         -1.64072       -1.24595        0.21179
N         -1.93404       -2.30387        0.30905
H         -2.82692       -1.92780        0.62618
H         -1.97517       -3.30962        0.46943
C         -2.29403        0.02209       -0.02755
C         -3.61856        0.24661       -0.23445
C         -3.77439        1.55952       -0.39344
C         -2.62674        2.22615       -0.30025
C         -1.65771        1.30428       -0.07124
C         -0.25033        1.51299        0.11469
N          0.76775        1.12591        0.29620
C          1.31323        0.16116        0.28875
H         -0.02603        2.58986        0.05284
H         -2.49240        3.30176       -0.39421
H         -4.73477        2.03568       -0.58086
H         -4.40565       -0.50348       -0.27481
H          3.89010       -1.78707       -0.80400
