26
Coordinates from ORCA-job ./opt_b97-3c_parallel
N          4.67696        0.28265        0.03975
C          3.57571        0.36138       -0.01893
N          2.91227       -0.75187       -0.02690
C          1.61806       -0.70500       -0.03656
C          1.45678        0.64975       -0.12111
N          0.51664        1.59586       -0.17908
C         -0.85046        1.43359       -0.12964
C         -1.73823        0.30862       -0.05027
C         -3.12418        0.66413       -0.01790
C         -3.82685       -0.49523        0.03038
C         -2.97164       -1.50369        0.03028
C         -1.67495       -1.07078       -0.01028
C         -0.58893       -2.01225        0.00016
C          0.77759       -1.86338        0.00526
H          1.34495       -2.78883        0.04393
H         -0.92033       -3.04702        0.03027
H         -3.27186       -2.54976        0.05896
H         -4.91171       -0.59643        0.05625
N         -3.75868        1.56812       -0.02214
H         -4.75651        1.63188        0.17167
H         -3.36039        2.48004        0.19349
H         -1.15885        2.48932       -0.17406
C          2.63458        1.33488       -0.18878
H          2.76580        2.32345        0.25319
H          5.30318       -0.52078        0.09392
H          5.27868        1.10623        0.02425
