32
Coordinates from ORCA-job ./opt_b97-3c_parallel
N         -4.63992       -0.79651        0.76133
C         -3.64716       -0.23428        0.70808
C         -2.40663        0.47880        0.67803
C         -2.27474        1.66713        1.44563
C         -1.09376        2.33590        1.30642
C         -0.38702        1.49047        0.48262
C         -1.16809        0.42595        0.09502
C         -0.89043       -0.45089       -1.02195
C         -1.99524       -0.70325       -1.91564
N         -2.77868       -1.08128       -2.65717
C         -0.03028       -1.50160       -0.72767
C          1.12935       -1.31088        0.13086
C          1.94356       -0.21634        0.20570
C          3.16576       -0.69616        0.78653
N          2.55360       -1.62385        0.88577
C          1.82878       -2.44333        0.67532
N          2.12640       -3.46079        0.97838
H          2.37761       -4.00036        1.80384
H          1.10992       -3.45704        0.91943
H          4.18691       -0.36318        1.02530
C          1.88911        1.04514       -0.38765
N          2.86367        1.49984       -0.67266
H          3.02851        2.47287       -0.92528
H          3.52687        0.93902       -1.20454
C          0.72202        1.92223       -0.33922
C          0.85743        3.32931       -0.62515
N          0.97946        4.44917       -0.81902
N         -0.15674       -2.54249       -1.10065
H         -0.88438       -2.85426       -1.74259
H          0.70629       -3.00204       -1.38701
H         -1.08641        3.41676        1.18805
H         -3.10223        2.03249        2.04679
