24
Coordinates from ORCA-job ./opt_b97-3c_parallel
N          0.62436        2.55829        0.89974
C          0.63977        1.48407        0.65501
N         -0.66442        1.69870        0.37552
C         -1.60595        0.78271        0.06036
N         -2.85005        1.09731       -0.42456
C         -3.56083       -0.09006       -0.49784
N         -2.76847       -1.12004       -0.00482
C         -1.54632       -0.60562        0.37124
N         -0.54099       -1.17449        0.95920
C          0.60944       -1.57312        0.52279
N          0.53970       -2.64628        0.76458
H          1.55851       -2.67610        0.82108
H          0.22442       -3.58026        1.03016
C          1.53541       -0.72606       -0.17948
C          2.70891       -1.09222       -0.75763
C          3.32106        0.02805       -1.12283
C          2.60623        1.11146       -0.83507
C          1.43964        0.70393       -0.26410
H          2.89719        2.13956       -1.04445
H          4.29809        0.05612       -1.60314
H          3.09029       -2.10443       -0.87993
H         -4.59659       -0.09674       -0.87702
H          0.34744        3.49946        1.18283
H          1.63929        2.52887        1.00474
