21
Coordinates from ORCA-job ./opt_b97-3c_parallel
N          3.59731        1.46975        0.44381
C          2.67559        0.88563        0.25099
N          2.72852       -0.41000        0.37865
C          2.53425       -1.69302        0.40382
C          1.33174       -1.02915       -0.15137
C          1.40544        0.35730       -0.19802
C          0.43592        1.21635       -0.86585
N         -0.86739        1.52038       -0.63890
C         -1.89301        0.79228       -0.12573
N         -3.13535        1.32182        0.12984
C         -3.95449        0.28226        0.54700
N         -3.21584       -0.89548        0.51544
C         -1.93321       -0.61974        0.09004
N         -0.94377       -1.42707       -0.13134
C          0.19801       -1.78435       -0.62725
H          0.24331       -2.84713       -0.91756
H         -5.01448        0.40344        0.82981
H          0.70656        2.19213       -1.30206
H          3.18970       -2.51900        0.72713
H          4.54516        1.15884        0.21077
H          3.74304        2.37313        0.90284
