25
Coordinates from ORCA-job ./opt_b97-3c_parallel
N          4.50018        0.11646        0.00273
C          3.40631       -0.03111        0.00126
N          2.58327        1.08558        0.00130
C          1.32204        0.61604       -0.00008
C          0.37207        1.69355       -0.00020
C         -0.99965        1.71862       -0.00029
C         -2.00392        0.69500        0.00024
C         -3.36548        1.12739        0.00123
C         -4.19065        0.05192        0.00166
C         -3.45379       -1.04844        0.00082
C         -2.12364       -0.73313       -0.00015
C         -1.16109       -1.79502       -0.00205
C          0.26907       -1.80579       -0.00276
C          1.24004       -0.75003       -0.00130
C          2.58788       -1.20365       -0.00072
H          2.93368       -2.23341       -0.00140
H          0.68147       -2.81114       -0.00382
H         -1.59612       -2.79085       -0.00277
H         -3.85854       -2.05845        0.00075
H         -5.27770        0.08779        0.00239
H         -3.67173        2.16894        0.00180
H         -1.43089        2.71605       -0.00005
H          0.81618        2.68686        0.00016
H          5.21865       -0.60727        0.01171
H          4.99572        1.00765        0.00577
