31
Coordinates from ORCA-job ./opt_b97-3c_parallel
N          4.14114        1.78757        1.46301
C          3.42517        1.01947        1.01212
C          2.55837        0.04852        0.41704
C          3.01157       -1.27862        0.08685
C          2.10636       -2.14462       -0.49290
C          1.02640       -1.30670       -0.51382
N         -0.11380       -1.69098       -0.98606
C         -1.29422       -2.04894       -0.59377
C         -2.26726       -1.18075        0.01683
C         -3.47335       -1.52331        0.52236
C         -3.99501       -0.40813        1.01403
C         -3.20550        0.65398        0.85509
N         -3.51001        1.88612        1.29011
H         -4.22496        2.01367        2.00372
H         -2.77016        2.56479        1.46100
C         -2.08452        0.22995        0.19487
C         -1.02939        0.95531       -0.28735
N         -1.46293        1.40583       -1.47984
H         -2.46237        1.52178       -1.63750
H         -0.98685        2.18691       -1.92664
C          0.27165        1.03494        0.12306
C          0.39736        2.35338        0.67115
N          0.82564        3.40205        0.51674
C          1.25835       -0.01050        0.02010
H         -4.96753       -0.36957        1.49991
H         -3.92373       -2.51291        0.52657
H         -1.33917       -3.13293       -0.77607
H          2.35790       -2.73997       -1.37083
N          3.97485       -1.80884        0.21065
H          4.21985       -2.64046        0.74479
H          4.65230       -1.08847        0.45564
