28
Coordinates from ORCA-job ./opt_b97-3c_parallel
N          3.82477        2.58807        0.92452
C          3.25362        1.62738        0.69229
C          2.58393        0.40397        0.38076
C          3.05853       -0.87066        0.19189
N          2.15928       -1.79650       -0.18211
C          0.96173       -1.09832       -0.25577
C         -0.24081       -1.86657       -0.53395
C         -1.58985       -1.58104       -0.35589
C         -2.24076       -0.34008       -0.00502
C         -1.85114        0.97121       -0.08650
C         -2.94416        1.73019        0.23228
C         -4.00299        0.96381        0.47340
C         -3.62782       -0.33277        0.32869
N         -4.42595       -1.08581        0.44973
H         -4.34188       -2.09013        0.58821
H         -5.38844       -0.90811        0.16601
H         -4.99588        1.32666        0.73391
H         -2.95315        2.81702        0.26898
C         -0.78164        1.28130       -0.85122
C          0.33726        1.40479       -0.10624
C          1.19602        0.27770        0.07174
H          0.71095        2.39190        0.15034
H         -0.90455        1.84689       -1.77173
H         -2.25321       -2.43785       -0.42263
H         -0.02520       -2.90712       -0.76133
N          3.98834       -1.46993        0.20768
H          4.85992       -0.93926        0.19314
H          4.25416       -2.44933        0.10499
