28
Coordinates from ORCA-job ./opt_b97-3c_parallel
N         -4.56608       -2.57272        0.27248
C         -3.98327       -1.61148        0.06454
C         -3.28591       -0.38479       -0.17189
C         -3.81130        0.72397       -0.75866
C         -2.89718        1.67843       -0.77133
C         -1.76086        1.21013       -0.19012
N         -0.65060        1.85264        0.00751
C          0.63595        1.95829        0.11979
N          0.60403        3.05311       -0.00263
H          1.25786        2.94400        0.76997
H          0.01022        3.84785        0.22518
C          1.62203        0.90344        0.24553
C          2.95121        1.17511        0.19491
C          3.05854       -0.19358        0.21282
C          4.45194       -0.43088       -0.03069
N          5.55724       -0.62074       -0.25900
C          2.34789       -1.34910        0.42918
N          2.50000       -2.68059        0.52943
H          1.74804       -3.30576        0.24613
H          3.38375       -3.11059        0.26019
C          1.29646       -0.48631        0.40765
C         -0.06583       -0.90627        0.59469
N         -1.16281       -0.81705        0.69604
C         -1.91998       -0.16254        0.21474
H         -0.19945       -1.98870        0.74632
H          3.35622        1.77771       -0.61648
H         -3.02675        2.67137       -1.19513
H         -4.81497        0.80529       -1.16920
