31
Coordinates from ORCA-job ./opt_b97-3c_parallel
N         -3.96555       -1.97456        0.96964
C         -3.28129       -1.10982        0.67360
C         -2.39017       -0.03731        0.33284
C         -2.82393        1.30590        0.52313
C         -1.90386        2.24696        0.16204
C         -0.81767        1.48383       -0.18660
C          0.05135        1.93842       -1.23738
C          1.41967        1.89687       -1.09652
C          2.05978        1.29588        0.04073
C          1.86682       -0.09383        0.29823
C          1.06730       -1.05685       -0.44687
N          1.63676       -2.00502       -0.59818
H          1.93511       -2.16860       -1.56099
H          0.95842       -2.74089       -0.39236
C         -0.31361       -0.90929       -0.60552
C         -1.00291       -2.06466       -1.13026
N         -1.50759       -2.99370       -1.56273
C         -1.10854        0.13522       -0.14047
C          3.07615       -0.45527        0.97512
N          3.77289        0.68486        1.09324
C          3.22901        1.77156        0.55896
H          3.79287        2.71504        0.62314
N          3.82771       -1.13438        1.41646
H          4.68774       -1.57816        1.73670
H          3.22293       -1.88483        1.07885
H          1.97666        2.65593       -1.63893
H         -0.33282        2.74760       -1.85339
H         -2.17942        3.13102       -0.41579
N         -3.73747        1.80931        0.89184
H         -4.35273        1.00961        1.03563
H         -4.34012        2.60462        0.68728
