28
Coordinates from ORCA-job ./opt_b97-3c_parallel
N         -0.43967       -2.87822        0.96533
C          0.00645       -1.78195        0.32838
C          1.30230       -1.48672        0.24714
C          1.72385       -0.29681       -0.26403
N          3.07401       -0.14491       -0.49893
C          4.07175        0.70707       -0.58796
C          3.10694        1.49626       -0.13612
C          1.88790        1.01484        0.04729
N          0.66860        1.33500        0.43596
C         -0.63900        1.34877        0.71824
N         -0.73296        2.38880        1.07606
H         -0.73177        3.18077        1.71698
H         -1.71395        2.21134        0.84848
C         -1.41625        0.30104        0.09700
C         -2.70879        0.48016       -0.33405
C         -3.06297       -0.69003       -0.94482
C         -2.06839       -1.56940       -0.90363
C         -1.00605       -1.03635       -0.23658
H         -2.10354       -2.56872       -1.33324
H         -4.02372       -0.87974       -1.42198
N         -3.37577        1.36039       -0.30243
H         -4.27416        0.89329       -0.17116
H         -3.51034        2.00821       -1.07971
H          3.31984        2.54145        0.07948
H          5.14292        0.81110       -0.81589
H          2.03026       -2.14978        0.71292
H         -1.35601       -3.26550        0.74622
H          0.19148       -3.65746        1.14900
