26
Coordinates from ORCA-job ./opt_b97-3c_parallel
N         -4.78784       -0.40663        0.00045
C         -3.72674       -0.10182        0.00225
N         -2.83050       -1.15342       -0.04750
C         -1.54826       -0.62060       -0.03951
C         -0.51555       -1.61881       -0.07869
C          0.85378       -1.54287       -0.06313
C          1.74379       -0.41729       -0.03028
C          1.65813        0.93781       -0.01256
C          2.98875        1.45339       -0.00932
N          3.15633        0.35064       -0.01318
C          3.13087       -0.76419       -0.02491
N          3.93587       -1.51664       -0.02928
H          4.94699       -1.58683        0.06096
H          3.54046       -2.34803        0.40402
H          3.52295        2.41619       -0.00071
C          0.63748        1.94514        0.00498
C         -0.73208        1.86679        0.02817
C         -1.63679        0.74977        0.01141
C         -2.95918        1.09927        0.04163
H         -3.39183        2.09482        0.08442
H         -1.21756        2.83867        0.05942
H          1.04194        2.95395        0.01593
H          1.35518       -2.50667       -0.08576
H         -0.90620       -2.63281       -0.11512
H         -5.57620        0.24022        0.00934
H         -5.18871       -1.34278       -0.05217
