33
Coordinates from ORCA-job ./opt_b97-3c_parallel
N         -2.52229       -4.21353        0.14229
C         -2.24251       -3.10628        0.16925
C         -1.87000       -1.72014        0.16941
C         -2.73644       -0.68033        0.65929
C         -2.05564        0.57071        0.41850
C         -2.69203        1.82045        0.73321
N         -3.22723        2.79855        0.98521
C         -0.80739        0.28998       -0.11034
C         -0.70884       -1.12354       -0.25683
C          0.29456       -1.87895       -0.95823
C          1.65280       -1.69422       -0.81131
C          2.31245       -0.67556       -0.03243
C          2.11417        0.68359        0.09344
C          3.26408        1.18241        0.66213
C          4.15952        0.22527        0.85274
C          3.64529       -0.94971        0.40734
N          4.36257       -1.78855        0.44110
H          3.81100       -2.60339        0.70148
H          5.33429       -2.00522        0.65366
H          5.14259        0.37322        1.29905
H          3.42011        2.22016        0.94969
C          1.23384        1.48221       -0.62621
N          1.59868        2.49610       -0.90258
H          2.53280        2.55192       -1.30308
H          1.09372        3.32672       -1.21006
C         -0.08233        1.20134       -0.97210
C         -0.93088        2.06510       -1.76248
N         -1.44108        2.89173       -2.36480
H          2.27840       -2.53901       -1.08415
H          0.00567       -2.86047       -1.32114
N         -3.75186       -0.83281        1.07557
H         -4.42121       -0.07036        0.98364
H         -4.25364       -1.69500        0.86885
