27
Coordinates from ORCA-job ./opt_b97-3c_parallel
N         -5.01186       -0.70892       -0.98664
C         -4.04321       -0.23568       -0.61470
C         -2.80451        0.33373       -0.18280
C         -3.06211        1.65276       -0.41019
N         -1.91197        2.08009        0.06284
C         -0.86966        1.33116        0.56117
N          0.23906        1.91170        0.89643
C          1.52295        1.90006        0.71127
C          2.23452        0.78688        0.13605
C          3.64553        0.87090       -0.06626
N          3.94298       -0.26333       -0.69296
C          2.82434       -0.97956       -0.82811
N          3.23964       -1.83904       -1.39102
H          2.73236       -2.62865       -1.79414
H          4.21947       -2.01608       -1.62484
C          1.59782       -0.47176       -0.23154
C          0.48336       -1.10828        0.45410
N          1.01125       -1.46460        1.36774
H          0.25714       -2.10538        1.62473
H          1.86299       -1.90402        1.71932
C         -0.85106       -1.00483        0.09589
C         -1.23430       -2.00566       -0.21955
N         -1.85882       -2.84122        0.24796
C         -1.49008        0.17848        0.16802
H          4.49946        1.55167        0.07824
H          1.73093        2.91573        1.08369
H         -3.78540        2.39416       -0.78662
