29
Coordinates from ORCA-job ./opt_b97-3c_parallel
N          1.94978        3.80321        0.38444
C          1.57305        2.72936        0.27640
C          1.11334        1.37242        0.18092
C          2.05470        0.28182        0.11454
C          1.86379       -1.05937        0.03153
N          0.92963       -1.92819        0.01817
C         -0.33179       -2.08860        0.15505
C         -1.31705       -1.05618        0.11132
C         -2.66752       -1.49797        0.09491
C         -3.49263       -0.33491       -0.00653
C         -4.91515       -0.50204       -0.06904
N         -6.04731       -0.63496       -0.15212
C         -2.65706        0.77099       -0.02799
N         -3.15091        1.75920       -0.10671
H         -4.13217        1.86707       -0.35874
H         -2.61578        2.32761       -0.76051
C         -1.28623        0.32192        0.05867
C         -0.28252        1.38428        0.11415
H         -0.73652        2.37347        0.11510
H         -3.00963       -2.52811        0.12594
H         -0.40341       -3.18570        0.19739
C          3.10961       -1.62519       -0.06434
C          4.07379       -0.70873       -0.03339
N          5.38549       -0.96774       -0.14097
H          6.03872       -0.21201       -0.33885
H          5.70174       -1.79311       -0.64654
C          3.46250        0.49488        0.09308
H          3.94599        1.46601        0.13058
H          3.29460       -2.69275       -0.17578
