33
Coordinates from ORCA-job ./opt_b97-3c_parallel
N         -1.91054       -3.26593       -1.35818
C         -1.42728       -2.24254       -1.19801
C         -0.61011       -1.17164       -0.67073
C          0.75900       -1.30229       -0.45238
N          1.24432       -2.27501       -0.68188
H          0.87601       -3.17604       -0.98157
H          2.25883       -2.36296       -0.64575
C          1.57417       -0.31460        0.23157
C          2.82670       -0.67912        0.84414
C          3.51080        0.47587        1.06330
C          2.79926        1.48741        0.59129
C          1.60411        1.05596        0.07597
C          0.90909        1.87192       -0.80185
N          1.22934        2.84653       -1.22057
H          0.88633        3.77525       -1.45768
H          2.21865        2.82313       -1.45949
C         -0.53124        1.90325       -0.94963
C         -1.38755        1.08151       -0.14277
C         -2.69026        1.57672        0.12811
C         -3.44671        0.56817        0.61417
C         -2.66894       -0.50837        0.61634
C         -1.39863       -0.26629        0.14008
H         -3.00740       -1.48644        0.95415
N         -4.72919        0.58964        1.00527
H         -5.16151        1.45932        1.31179
H         -5.11511       -0.17375        1.55693
H         -3.02553        2.57791       -0.12621
H         -1.00479        2.78453       -1.38919
H          3.12243        2.52532        0.63371
H          4.49390        0.58026        1.52557
N          3.47423       -1.52184        1.15226
H          2.59594       -1.94960        1.44078
H          4.17037       -1.76622        1.85368
