26
Coordinates from ORCA-job ./opt_b97-3c_parallel
N          0.25452       -2.74724       -0.88635
C         -0.11347       -1.78359       -0.49846
N          1.21079       -1.56014       -0.46576
C          1.90753       -0.51684        0.02728
N          3.22912       -0.63801        0.36004
C          3.69344        0.65759        0.50795
C          2.77737        1.62737        0.18515
C          1.65796        0.88964       -0.06739
N          0.68801        1.53311       -0.83904
C         -0.66941        1.23531       -0.85584
N         -0.80802        2.18026       -1.41618
H         -0.66197        2.99115       -2.02182
H         -1.81846        2.16494       -1.24837
C         -1.25579        0.38268        0.14396
C         -2.57585        0.61426        0.63607
N         -2.31115       -0.44606        0.88757
C         -2.16875       -1.56005        0.88022
C         -0.99861       -0.98870        0.30491
H         -2.70286       -2.49465        1.11416
N         -3.30162        1.43995        0.58848
H         -4.14633        0.86701        0.59908
H         -3.44875        2.16241        1.29393
H          2.73194        2.56088        0.74306
H          4.75481        0.75709        0.78775
H         -0.67598       -3.04592       -1.17948
H          0.82336       -3.59507       -0.87231
