30
Coordinates from ORCA-job ./opt_b97-3c_parallel
N          2.92817        3.50944       -0.43740
C          2.36624        2.52003       -0.32519
C          1.69079        1.25583       -0.19139
C          0.35508        1.57828       -0.02113
C         -0.82060        0.75912        0.08418
C         -2.03697        1.52147        0.10343
C         -3.07327        0.62784        0.20350
C         -4.26168        1.43522        0.20691
N         -5.22385        2.05281        0.19384
C         -2.55831       -0.64578        0.26094
N         -3.43942       -1.31226        0.34982
H         -3.12539       -1.86762       -0.44506
H         -4.45562       -1.26254        0.29678
C         -1.17542       -0.56713        0.19211
C         -0.42240       -1.80479        0.29601
N         -0.91000       -2.78838        0.46735
H         -1.78993       -2.55583        0.92517
H         -0.60025       -3.67069        0.86968
C          0.92630       -2.12188        0.19654
C          2.07099       -1.30550       -0.10011
C          3.28798       -2.03511       -0.23585
C          4.29831       -1.18955       -0.51072
C          3.78009        0.02685       -0.54352
C          2.42420        0.01694       -0.28919
H          4.37392        0.91039       -0.76535
H          5.33681       -1.45738       -0.68899
H          3.38979       -3.11202       -0.14170
H          1.22677       -3.17079        0.30262
H         -2.10103        2.60629        0.03949
H          0.09817        2.63871       -0.01223
