28
Coordinates from ORCA-job ./opt_b97-3c_parallel
N         -5.20635        0.06279       -0.26917
C         -4.13496        0.19666        0.10133
C         -2.77949        0.37811        0.52486
C         -2.88424        1.68851        0.88762
N         -1.71510        2.22741        0.62018
C         -0.73815        1.30195        0.33022
N          0.02612        1.90604       -0.51962
C          1.30610        1.78026       -0.61832
C          2.01892        0.59664       -0.23151
C          3.37156        0.55674       -0.02408
C          3.63340       -0.71583        0.40131
C          2.53209       -1.46151        0.47460
N          2.54043       -2.73212        0.90982
H          3.39371       -3.14233        1.28838
H          1.75193       -3.11496        1.42831
C          1.47810       -0.69888        0.05685
C          0.35515       -1.34172       -0.42391
C         -0.93544       -1.00434       -0.19396
C         -1.58558       -1.86711       -0.46913
N         -2.35973       -2.46882       -1.05904
C         -1.44824        0.14792        0.28048
H          0.59448       -2.30641       -0.89372
H          4.62431       -1.07565        0.67864
N          4.17039        1.31255       -0.12633
H          4.49992        2.23926       -0.39449
H          4.99320        0.71026       -0.15109
H          1.84376        2.72530       -0.79076
H         -3.54560        2.54701        1.08882
