31
Coordinates from ORCA-job ./opt_b97-3c_parallel
N          2.12330        3.76980       -0.35994
C          1.68233        2.71776       -0.29537
C          1.17963        1.37228       -0.19789
C         -0.20367        1.44755       -0.17058
C         -1.23281        0.52098       -0.13835
C         -1.42281       -0.83323       -0.37873
C         -2.76443       -1.14240       -0.41530
C         -3.39673        0.00827       -0.08864
C         -4.82787        0.03250        0.01302
N         -5.96526        0.03647        0.12243
C         -2.52747        1.12177        0.08583
N         -2.94869        2.12001        0.32287
H         -3.95438        2.27895        0.36988
H         -2.51308        2.84159        0.89376
H         -3.14292       -2.10061       -0.06362
C         -0.46201       -1.86839       -0.69873
N         -0.77753       -2.88095       -1.02146
H         -1.69217       -2.85861       -1.47059
H         -0.36881       -3.78554       -1.25081
C          0.93897       -2.02220       -0.37324
C          1.89378       -1.06920        0.10752
N          3.11953       -1.37526        0.37369
C          4.13196       -0.59111        0.56086
C          3.40777        0.53850        0.32364
C          2.08274        0.28630        0.08791
H          3.76884        1.50392        0.67496
N          5.15404       -0.88782        0.85299
H          5.91230       -0.22287        1.00584
H          5.55380       -1.81213        1.01431
H          1.37603       -3.02070       -0.46300
H         -0.58166        2.47064       -0.16411
