36
Coordinates from ORCA-job ./opt_b97-3c_parallel
N         -0.29059        4.41306       -1.09096
C         -0.07133        3.32603       -0.81688
C          0.15662        1.95530       -0.42801
C         -0.89929        1.29603        0.29903
N         -2.07201        1.80252        0.51401
C         -2.99408        1.03390        0.99035
N         -3.75703        1.72077        1.40086
H         -4.05455        2.60434        1.81486
H         -4.59961        1.15109        1.30888
C         -2.41263       -0.17274        0.66705
C         -3.16673       -1.34341        1.00903
N         -4.25519       -1.57799        0.75234
C         -1.16153       -0.05853       -0.04691
C         -0.68732       -0.89983       -1.10605
C         -1.72181       -1.24297       -2.04003
N         -2.57446       -1.48226       -2.76075
C          0.32350       -1.78147       -0.59291
N          0.25283       -2.85853       -0.83721
H         -0.23007       -3.55936       -1.39791
H          1.19793       -3.21045       -0.68575
C          1.37545       -1.15255        0.19134
C          2.35530       -1.95230        0.87201
C          3.46275       -1.26440        1.31175
C          3.13717       -0.02151        0.81782
N          4.00739        0.60030        1.10725
H          4.06519        1.42103        0.50647
H          4.93616        0.46825        1.50604
C          1.86054        0.13561        0.16766
C          1.48914        1.33575       -0.45836
N          2.29319        2.02419       -0.79298
H          2.49227        3.00236       -1.00052
H          2.99682        1.47398       -1.28450
H          4.47029       -1.68450        1.20256
N          2.50676       -3.01412        1.14373
H          3.28441       -3.40434        1.67449
H          1.70249       -3.61180        1.32423
