31
Coordinates from ORCA-job ./opt_b97-3c_parallel
N         -4.31589       -2.99868        1.33607
C         -3.71717       -2.09446        0.97485
C         -2.97911       -0.97513        0.48077
C         -3.55215        0.33624        0.49155
C         -2.63225        1.24449       -0.12177
C         -2.96907        2.62344       -0.29266
N         -3.21353        3.73376       -0.41058
C         -1.53260        0.49965       -0.47452
C         -1.72823       -0.84304       -0.07316
C         -0.87902       -1.88822       -0.37027
C          0.44434       -1.95960       -0.78788
C          1.58527       -1.06530       -0.60565
C          2.82797       -1.60004       -0.73806
C          3.27870       -0.53856       -0.00076
C          4.54747       -1.04612        0.43783
N          5.57224       -1.41820        0.78131
C          2.82334        0.69615        0.38321
N          3.50367        1.80084        0.73492
H          3.03741        2.54579        1.24891
H          4.45568        1.72138        1.08856
C          1.61113        0.27635       -0.08414
C          0.54321        1.19930       -0.36328
N          0.53023        2.29284       -0.17591
H          1.52225        2.52036       -0.22526
H          0.02182        3.17540       -0.19095
C         -0.51736        1.03775       -1.19285
H         -0.37660        0.77755       -2.23994
H          3.23416       -1.81395       -1.72489
H          0.74766       -2.95964       -1.08534
H         -1.34545       -2.86574       -0.29008
H         -4.54086        0.59173        0.86042
