30
Coordinates from ORCA-job ./opt_b97-3c_parallel
N         -0.44577       -4.02763        0.20086
C         -0.28859       -2.91870       -0.02674
C         -0.04637       -1.53901       -0.31916
C          1.16931       -1.45730       -0.93232
C          2.30789       -1.00344       -0.33384
C          2.64775        0.36981       -0.11518
C          1.74329        1.45217       -0.41256
N          0.53671        1.31221       -0.86393
C         -0.63023        0.93775       -0.43657
C         -1.76107        1.67499       -0.16061
C         -1.78450        3.09552       -0.35357
N         -2.33876        4.01267       -0.75163
C         -2.79990        0.79145        0.30787
C         -2.31359       -0.49715        0.33748
C         -3.01279       -1.68945        0.72218
N         -3.60466       -2.61913        1.02364
C         -0.95928       -0.42544       -0.13617
N         -3.81403        1.13906        0.58207
H         -4.62831        0.53416        0.48097
H         -4.08429        2.05816        0.23278
H          2.03908        2.49847       -0.24153
C          3.91716        0.45693        0.36665
C          4.33339       -0.80429        0.44030
C          3.42010       -1.68467        0.04380
H          3.54511       -2.76468        0.01778
H          5.32392       -1.09209        0.78638
N          4.67181        1.51617        0.69701
H          4.43697        2.44151        0.34443
H          5.68693        1.43399        0.70498
H          1.21825       -1.69073       -1.99345
