33
Coordinates from ORCA-job ./opt_b97-3c_parallel
N         -3.17215       -2.35706       -1.01086
C         -3.31346       -1.57354       -0.19143
C         -2.59028       -0.34466        0.00342
C         -3.29152        0.84244       -0.07825
C         -2.53789        1.96873        0.13900
C         -1.30057        1.41228        0.28177
C         -1.22757       -0.01462        0.29493
N         -0.56736       -0.89148        0.45869
C          0.34580       -1.50729        0.40120
N          0.09550       -2.55424        0.64453
H         -0.79624       -2.93735        0.32954
H          0.16721       -2.77042        1.63749
C          1.55448       -0.85179       -0.01142
C          2.74618       -1.60423       -0.24608
N          3.56006       -0.71859       -0.80793
C          2.91192        0.44595       -0.88442
N          3.71866        1.01505       -1.38367
H          3.39966        1.97545       -1.25596
H          4.71519        1.06665       -1.59291
C          1.59057        0.57087       -0.29696
C          1.24768        1.71775        0.52252
N          1.98087        2.49240        0.81943
H          1.53541        3.40860        0.76492
H          2.56601        2.51464        1.65473
C         -0.12325        2.20589        0.58405
H         -0.29859        3.24589        0.85498
N          3.39555       -2.49420       -0.29184
H          2.61320       -3.04240        0.06513
H          4.15843       -3.15051       -0.45311
H         -2.66434        2.88320       -0.44407
N         -4.32902        1.19215       -0.24315
H         -4.90863        0.50800       -0.72796
H         -4.96660        1.85023        0.20267
