29
Coordinates from ORCA-job ./opt_b97-3c_parallel
N         -4.80955       -0.28530        0.20724
C         -3.71898       -0.40278        0.05654
N         -2.84584        0.65289       -0.20493
C         -1.50263        0.31066       -0.35908
N         -0.63352        1.26848       -0.47674
C          0.56072        1.72719       -0.24677
N          0.29307        2.77586       -0.45594
H         -0.23803        3.53264       -0.02329
H          0.81260        3.20525       -1.22235
C          1.67328        0.89972        0.15566
C          2.95191        1.48368        0.41676
N          3.71088        0.45203        0.77630
C          2.96769       -0.65496        0.73489
N          3.71039       -1.41701        1.04328
H          4.72604       -1.29465        1.05520
H          3.56421       -2.38015        1.35031
C          1.58012       -0.54176        0.31744
C          0.73634       -1.40167       -0.48114
N          1.09481       -1.70787       -1.47930
H          0.62394       -2.54040       -1.83772
H          1.94831       -1.62585       -2.03322
C         -0.52010       -1.84769       -0.15462
C         -1.58094       -1.02944       -0.13229
C         -2.81718       -1.41936        0.10640
H         -3.09545       -2.45356        0.30711
H         -0.66247       -2.90975        0.04266
H          3.51677        2.42913        0.44042
H         -5.51636       -0.91106       -0.18631
H         -5.34243        0.39863        0.74931
