31
Coordinates from ORCA-job ./opt_b97-3c_parallel
N         -1.90984       -3.05822       -1.74201
C         -1.42361       -2.20233       -1.16271
C         -0.86334       -1.11011       -0.42336
C         -1.55247        0.13234       -0.23084
N         -2.82719        0.28887       -0.71775
C         -3.30281        1.47090       -0.18852
N         -2.32443        1.78944        0.60722
C         -1.18396        1.17768        0.57734
C          0.03451        1.61977        1.22585
C          1.35293        1.30230        0.88199
N          2.00500        2.07888        1.32520
H          2.90041        1.61817        1.16029
H          2.22158        2.94585        1.81544
C          1.84662        0.31593       -0.06279
C          3.10481        0.32189       -0.62819
C          3.21896       -0.84969       -1.32667
C          2.12568       -1.58763       -1.18593
C          1.24598       -0.93244       -0.38385
C          0.21559       -1.46115        0.32018
N          0.53171       -2.25954        1.35182
H         -0.04539       -3.07410        1.55650
H          1.50253       -2.53961        1.48761
H          1.96488       -2.56576       -1.63373
H          4.08333       -1.15436       -1.91777
N          4.01743        0.94128       -0.67693
H          3.94675        1.92101       -0.94671
H          5.00972        0.74148       -0.55687
H         -0.14108        2.46560        1.89523
N         -4.31342        1.84662       -0.41782
H         -5.07536        1.31609       -0.83979
H         -4.67232        2.78749       -0.26015
