33
Coordinates from ORCA-job ./opt_b97-3c_parallel
N          0.27865       -4.15519        0.29212
C          0.14764       -3.02207        0.34805
C         -0.06880       -1.60371        0.40024
C          0.78014       -0.92023        1.20586
C          1.66174       -0.40112        0.31143
C          1.58711        0.88596       -0.17044
C          0.53323        1.80174        0.26222
N          0.94958        2.83183        0.27275
H          1.93011        2.98191        0.50731
H          0.47848        3.72248        0.42638
C         -0.89073        1.49313        0.49244
C         -1.68483        2.63504        0.87853
N         -2.27739        2.81028        1.84075
C         -1.63913        0.38528        0.06021
C         -1.24396       -0.98879       -0.14271
N         -2.23078       -1.77461       -0.61818
C         -3.29431       -0.90553       -0.69813
N         -3.95966       -1.70588       -1.08257
H         -4.68877       -1.12096       -1.49570
H         -4.34691       -2.64936       -1.04364
C         -2.97940        0.42268       -0.26710
C         -4.18995        1.17936       -0.41238
N         -4.77237        1.51093       -1.33861
C          2.75451        1.23350       -0.81639
C          3.50502        0.09863       -0.75458
C          4.83468        0.07465       -1.28249
N          5.90797        0.06197       -1.67398
C          2.91335       -0.98965       -0.04946
N          3.29943       -1.98882        0.22101
H          4.16613       -1.97795       -0.31561
H          3.43348       -2.66692        0.96928
H          2.73919        1.84381       -1.71734
H          1.11896       -1.32718        2.15729
