29
Coordinates from ORCA-job ./opt_b97-3c_parallel
N         -4.63396       -0.16928        0.43671
C         -3.55132        0.02783        0.35521
N         -2.31092       -0.30597        0.51082
C         -1.02802       -0.43719        0.38759
C         -0.48064       -1.36364       -0.55394
C          0.84812       -1.66592       -0.39062
N          1.02506       -2.70308       -0.73138
H          0.82922       -3.69990       -0.79059
H          2.02412       -2.59762       -0.90676
C          1.72915       -0.72902        0.26086
C          3.01007       -1.16368        0.70031
C          3.73589       -0.08462        1.06379
C          2.99031        0.98993        0.83970
C          1.75462        0.65872        0.32983
C          0.92635        1.62125       -0.39593
N          1.30109        2.63705       -0.62215
H          2.29515        2.48414       -0.78668
H          1.15356        3.64464       -0.66661
C         -0.43235        1.63860       -0.72650
C         -1.41809        0.73792       -0.18385
C         -2.75306        1.00729       -0.15210
H         -3.10726        2.03730       -0.20922
H         -0.86281        2.50772       -1.23055
H          3.31982        2.00524        1.05016
H          4.74628       -0.09514        1.46585
H          3.37061       -2.18739        0.67388
H         -1.18141       -1.99058       -1.10568
H         -5.36355        0.52993        0.57195
H         -5.10303       -1.07436        0.43875
