29
Coordinates from ORCA-job ./opt_b97-3c_parallel
N          1.13722        4.15409        0.29250
C          0.85613        3.04888        0.23248
C          0.55736        1.64609        0.17897
C          1.66302        0.71772        0.14108
N          2.92875        1.00659        0.08704
C          3.84181        0.09566       -0.07224
N          4.82005        0.60386       -0.16637
H          5.37524        1.45758       -0.10667
H          5.46172       -0.13186       -0.46797
C          3.03675       -1.02296       -0.01906
C          3.65750       -2.30938       -0.13409
N          4.58342       -2.68577       -0.68938
C          1.67050       -0.63740        0.12886
N          0.75756       -1.52475        0.21596
C         -0.44929       -1.91510        0.36725
C         -1.58185       -1.06368        0.22768
C         -2.86620       -1.66844        0.21835
C         -3.81726       -0.63089        0.00572
C         -5.22902       -0.85503       -0.09533
N         -6.34901       -1.05086       -0.20338
C         -3.11855        0.63140       -0.09294
N         -3.69142        1.56282       -0.26791
H         -3.40504        2.33755       -0.86376
H         -4.69356        1.44430       -0.41479
C         -1.70206        0.36414        0.06899
C         -0.82729        1.45613        0.09551
H         -1.37529        2.39561        0.04385
H         -3.08413       -2.72717        0.32283
H         -0.49609       -3.00805        0.49130
