31
Coordinates from ORCA-job ./opt_b97-3c_parallel
N          5.24278        0.71803        1.34661
C          4.25028        0.18278        1.16116
C          3.00278       -0.45824        0.89534
C          3.34885       -1.32467       -0.10078
N          2.32819       -1.82038       -0.76590
C          1.23476       -1.03345       -0.48237
N          0.19434       -1.75189       -0.21436
C         -1.04489       -1.65433        0.13735
N         -1.08045       -2.75603        0.17034
H         -1.12169       -3.77160        0.09382
H         -1.92369       -2.47229        0.66888
C         -1.76474       -0.41233        0.10702
C         -3.17540       -0.33591       -0.09614
C         -3.61630        0.94163       -0.35477
C         -2.44945        1.67576       -0.36922
N         -2.68282        2.72624       -0.61971
H         -2.03586        3.24209       -1.21446
H         -3.58097        3.20306       -0.69330
C         -1.28117        0.91420       -0.03974
C          0.05007        1.47899        0.10574
N          0.32953        2.52744       -0.10473
H         -0.60407        2.91737        0.02479
H          0.98134        3.27526        0.13073
C          1.17558        0.98729        0.73646
C          1.77883       -0.14994        0.38557
H          1.67201        1.59776        1.49814
H         -4.52786        1.32212        0.11143
N         -3.93905       -1.13032       -0.18094
H         -4.12164       -2.12955       -0.10375
H         -4.78524       -0.71871       -0.57350
H          4.14487       -2.01224       -0.42954
