26
Coordinates from ORCA-job ./opt_b97-3c_parallel
N         -0.69662       -2.41112        0.93833
C         -0.18706       -1.50812        0.55652
C          1.23328       -1.75837        0.35711
C          2.22837       -0.76670       -0.01028
N          3.50329       -1.16638       -0.31200
C          4.24726       -0.01159       -0.49583
N          3.44047        1.09321       -0.25173
C          2.17444        0.65662        0.06952
N          1.18131        1.36442        0.49965
C         -0.02510        1.81938        0.44977
C         -1.10233        0.94543        0.10427
C         -2.43317        1.44319       -0.03968
N         -3.10131        0.38964       -0.49733
C         -2.24908       -0.63337       -0.60699
N         -3.01545       -1.33937       -0.98890
H         -4.02303       -1.42070       -0.83654
H         -2.74491       -2.21793       -1.43340
C         -0.86530       -0.45517       -0.17765
N         -3.12593        2.29903        0.01944
H         -4.14147        2.22735       -0.04896
H         -2.93370        3.27610        0.23999
H         -0.00409        2.89862        0.66932
H          5.31678       -0.06065       -0.75775
H          1.61385       -2.76592        0.52732
H         -1.27286       -2.56506        1.76666
H         -0.22070       -3.29803        0.76730
