33
Coordinates from ORCA-job ./opt_b97-3c_parallel
N          3.73212        2.48098        0.41683
C          3.26025        1.44564        0.30848
C          2.63627        0.16913        0.14512
C          3.10043       -1.01528       -0.38737
N          4.07209       -1.31696       -0.81875
H          4.67975       -2.13523       -0.77897
H          4.67512       -0.52643       -1.04695
C          2.20685       -2.05901       -0.34400
C          1.10912       -1.46057        0.20442
N         -0.02912       -2.17548        0.57427
C         -1.25319       -1.58151        0.87478
N         -1.50380       -2.62924        1.12166
H         -2.42455       -2.50751        0.69426
H         -1.60714       -3.37172        1.81177
C         -1.82860       -0.57277        0.00741
C         -3.04373       -0.70788       -0.61968
C         -3.39615        0.54343       -1.05750
C         -2.51675        1.47660       -0.69462
N         -2.66948        2.78290       -0.96201
H         -3.32859        3.10030       -1.67114
H         -1.87285        3.41869       -0.95454
C         -1.53205        0.82451       -0.01965
C         -0.41893        1.39746        0.68785
N          0.51145        0.68768        1.23517
C          1.30824       -0.10090        0.58047
N         -0.01983        2.40260        0.90309
H          0.77972        3.03174        0.97313
H         -0.84210        2.94916        1.15424
H         -4.30975        0.76241       -1.61056
N         -3.72439       -1.56922       -0.74666
H         -4.67141       -1.21092       -0.61605
H         -3.70454       -1.96862       -1.68612
H          2.10024       -2.75848       -1.17238
