29
Coordinates from ORCA-job ./opt_b97-3c_parallel
N         -6.16193        0.06426        1.03252
C         -5.08420        0.01878        0.65558
C         -3.72450       -0.03471        0.22420
C         -3.02976       -1.18867       -0.01796
C         -1.78358       -0.72531       -0.37246
C         -0.74012       -1.67013       -0.71154
N          0.49935       -1.46307       -1.01465
C          1.41709       -0.68947       -0.54770
C          1.44223        0.65281       -0.52427
N          0.52680        1.44404       -0.97640
C         -0.70843        1.63525       -0.65411
N         -0.55205        2.72687       -0.70094
H         -1.29774        2.57764       -1.37724
H          0.07030        3.42885       -1.09737
C         -1.74304        0.66563       -0.35737
C         -2.95917        1.14110        0.01417
H         -3.30039        2.16409        0.14340
C          2.63969        0.99601        0.17843
C          3.01764        2.34415        0.46820
N          3.34630        3.41071        0.71431
C          3.41122       -0.05853        0.60222
C          2.60169       -1.06717        0.14548
C          3.07938       -2.37181        0.48355
N          3.74765       -3.29354        0.58594
H          4.48375       -0.07174        0.41971
N         -0.59932       -2.76057       -0.79848
H         -1.39139       -2.57326       -1.40963
H         -0.00739       -3.43413       -1.28119
H         -3.13877       -2.05098        0.63652
