24
Coordinates from ORCA-job ./opt_b97-3c_parallel
N         -4.56796        0.18515        0.03108
C         -3.47007        0.12785        0.03898
N         -2.76461       -1.05600        0.11824
C         -1.42560       -0.74979        0.11098
N         -0.58388       -1.83479        0.21533
C          0.78589       -1.95287        0.22080
C          1.86627       -1.02692        0.08910
C          3.17372       -1.59513        0.07969
N          3.43085       -0.51613       -0.01987
C          3.42694        0.59493       -0.10105
C          2.01144        0.37363       -0.01886
C          1.10803        1.50416       -0.03451
N          1.55091        2.52116       -0.08945
H          2.43443        2.50855        0.41587
H          1.18770        3.46972       -0.01956
C         -0.27534        1.59371       -0.01161
C         -1.29608        0.66682        0.02796
N         -2.57551        1.17929       -0.01371
H         -0.67811        2.60969       -0.05034
H          4.25859        1.30939       -0.18921
H          3.61700       -2.60106        0.14233
H          0.60138       -3.03257        0.32121
H         -4.65609       -0.73437       -0.39672
H         -5.04016        0.84725       -0.58009
