28
Coordinates from ORCA-job ./opt_b97-3c_parallel
N         -5.39562       -0.87360       -0.85984
C         -4.29615       -0.63209       -0.66553
C         -2.92963       -0.31777       -0.37859
C         -1.93083       -1.22094       -0.61022
C         -0.81006       -0.59906       -0.09940
C         -1.16898        0.64744        0.37120
C         -0.38187        1.52102        1.18968
N          0.92970        1.89885        1.01342
C          1.42946        1.53029       -0.17618
N          2.26674        2.41590       -0.80544
C          3.32258        1.68778       -1.32139
C          3.34129        0.39877       -0.86417
C          2.12144        0.29094       -0.25979
C          1.72299       -0.85858        0.52702
C          2.76651       -1.76982        0.91976
N          3.62091       -2.46878        1.21294
C          0.33925       -1.33880        0.42115
N          0.13835       -2.42238        0.54970
H          0.82411       -3.16047        0.39066
H         -0.76046       -2.88901        0.66613
H          3.76113       -0.40803       -1.46157
H          4.20374        2.03549       -1.88324
H          0.16158        2.23659        1.82635
C         -2.50759        0.89443        0.24554
N         -3.10115        1.76432        0.58739
H         -3.27960        2.71524        0.90767
H         -4.01353        1.31176        0.53104
H         -1.88926       -1.78127       -1.54221
