26
Coordinates from ORCA-job ./opt_b97-3c_parallel
N         -0.72840       -2.97204        0.77070
C         -0.16203       -1.82893        0.34523
C          1.16197       -1.64920        0.34643
C          1.74833       -0.46673        0.00248
N          2.83635       -0.05353       -0.74315
C          3.46709        1.08631       -0.93411
C          2.60841        1.60177       -0.06801
C          1.67998        0.81847        0.45976
N          0.88258        1.12167        1.17893
C         -0.18086        1.25542        0.89680
C         -1.20449        0.47346        0.25814
C         -2.40518        0.96445       -0.18569
C         -3.01793       -0.08936       -0.80430
C         -2.25545       -1.17749       -0.76432
C         -1.09795       -0.91350       -0.09299
H         -2.52252       -2.13739       -1.19964
H         -3.99505       -0.05057       -1.28339
N         -2.92415        1.93816       -0.18290
H         -2.50629        2.75983       -0.61495
H         -3.89251        2.17176        0.02840
H         -0.42314        2.31465        1.07305
H          2.66819        2.65574        0.19685
H          4.32610        1.16646       -1.61665
H          1.80402       -2.44989        0.70611
H         -0.19477       -3.83887        0.76828
H         -1.69045       -3.18962        0.51934
