33
Coordinates from ORCA-job ./opt_b97-3c_parallel
N         -1.10320       -3.60893        0.95180
C         -0.44721       -2.68453        0.80034
C          0.10171       -1.80352        0.37907
C         -0.77284       -0.86314       -0.15957
N         -1.72892       -1.29716       -1.10620
C         -2.82636       -0.56920       -0.89997
N         -3.39660       -1.16111       -1.64778
H         -4.27069       -0.63682       -1.73556
H         -3.65312       -2.13193       -1.84029
C         -2.61973        0.36511        0.06788
C         -3.85999        1.07398        0.16591
N         -4.85097        1.63939        0.19177
C         -1.26658        0.34030        0.29478
C         -0.52082        1.35887        0.77557
C         -1.05759        2.19780        1.28262
N         -1.61754        2.72924        2.12557
C          0.82758        1.47466        0.70533
N          1.60293        2.38647        1.35129
H          1.19057        3.15100        1.88869
H          2.53128        2.66205        1.03522
C          1.61771        0.68896       -0.11515
C          2.10003       -0.58476       -0.05441
C          3.41343       -0.55859       -0.46135
N          3.58667        0.60550       -1.20436
C          2.49670        1.33191       -0.95557
N          2.97792        2.16962       -1.50606
H          2.45524        3.03662       -1.63717
H          3.93659        2.40702       -1.77391
H          4.28714       -1.21376       -0.60719
C          1.44864       -1.71148        0.27151
N          2.22027       -2.80385        0.49609
H          1.79524       -3.68230        0.79638
H          3.11403       -2.72244        0.98111
