36
Coordinates from ORCA-job ./opt_b97-3c_parallel
N          2.99457        2.91294       -1.64636
C          2.27547        2.11630       -1.25226
C          1.36484        1.13257       -0.71154
C          1.89666        0.15019        0.21239
C          1.70550       -1.27221        0.20268
C          1.04080       -1.87932       -0.91661
C         -0.32194       -1.52396       -1.25914
N         -0.60323       -2.34946       -1.94024
H         -0.34932       -3.31518       -2.13887
H         -1.52378       -2.19204       -2.34612
C         -1.07618       -0.79430       -0.26529
C         -0.97062        0.61472       -0.02934
C         -2.10906        1.17664        0.51549
C         -2.95613        0.09636        0.49574
C         -4.33235        0.25700        0.87440
N         -5.42276        0.36533        1.20300
C         -2.43413       -1.14772        0.00398
N         -3.01498       -2.07815       -0.15136
H         -3.99738       -2.24464        0.06077
H         -2.69132       -2.86442       -0.71118
N         -2.29718        2.32277        1.19993
H         -3.05612        2.40127        1.87485
H         -1.50369        2.86321        1.53570
C         -0.01500        1.37249       -0.70982
N         -0.38715        2.33911       -1.12371
H          0.20349        3.16638       -1.19120
H         -1.34717        2.67023       -1.03920
H          1.49956       -2.78951       -1.31272
C          2.79741       -1.85731        0.77326
C          3.70972       -0.95047        1.09959
C          3.22295        0.26644        0.74061
H          3.80642        1.18136        0.70186
N          4.90753       -1.22966        1.63528
H          5.08205       -2.12729        2.08250
H          5.43479       -0.51219        2.12944
H          2.91369       -2.92989        0.91753
