34
Coordinates from ORCA-job ./opt_b97-3c_parallel
N         -3.32824       -4.05560        1.24052
C         -3.06073       -2.97829        0.98070
C         -2.70704       -1.63821        0.62080
C         -3.71031       -0.62565        0.65634
C         -3.16268        0.61652        0.21328
C         -4.06374        1.72769        0.18278
N         -4.81566        2.58797        0.15692
C         -1.83071        0.35565       -0.05910
C         -1.55744       -1.05225        0.13890
C         -0.47728       -1.85164       -0.21413
C          0.63119       -1.44464       -1.05551
N          0.95311       -2.38172       -1.55177
H          0.57008       -3.32401       -1.58230
H          1.86775       -2.41299       -2.00280
C          1.62973       -0.67280       -0.34849
C          1.42780        0.68296        0.02465
C          0.45622        1.41277       -0.58585
C         -0.90946        1.40405       -0.45767
C         -1.29182        2.76892       -0.70864
N         -1.64831        3.55856       -1.45843
H          0.88555        2.16416       -1.25646
C          2.55597        1.30254        0.51857
C          3.44646        0.27117        0.31568
C          4.82692        0.52315        0.63465
N          5.93467        0.57455        0.90644
C          2.96122       -0.96678       -0.22299
N          3.61976       -1.82681       -0.45791
H          3.19023       -2.74938       -0.48508
H          4.60868       -1.96141       -0.25310
N          2.80696        2.59065        0.81888
H          2.11465        3.15732        1.30289
H          3.73198        2.86061        1.15313
H         -0.63609       -2.92519       -0.08797
H         -4.74369       -0.78291        0.95196
