27
Coordinates from ORCA-job ./opt_b97-3c_parallel
N         -5.09059       -0.07997        0.08412
C         -4.00312        0.11504        0.04599
N         -3.20774       -1.01060        0.00754
C         -1.88533       -0.59022       -0.02659
C         -1.81705        0.78825       -0.01909
N         -0.88937        1.75615       -0.05149
C          0.48934        1.70713       -0.06046
C          1.46042        0.65922       -0.00985
C          2.83196        1.05843        0.03218
N          3.55398       -0.07268        0.06559
C          2.79718       -1.18255        0.04574
N          3.57602       -1.96857        0.07694
H          3.39390       -2.95979        0.23580
H          4.59262       -1.88738        0.02299
C          1.42196       -0.76234       -0.00413
C          0.43467       -1.72037       -0.04719
C         -0.94157       -1.68021       -0.06347
H         -1.42354       -2.65533       -0.08455
H          0.81292       -2.73902       -0.05897
N          3.58324        1.86458        0.05199
H          4.57845        2.08595        0.07765
H          3.09469        2.75776        0.10486
H          0.59367        2.80343       -0.07755
C         -3.11528        1.22895        0.02190
H         -3.45460        2.26221        0.03944
H         -5.77935        0.67048        0.15681
H         -5.62806       -0.94719        0.11753
