25
Coordinates from ORCA-job ./opt_b97-3c_parallel
N          5.31318        0.36753        0.94800
C          4.19803        0.26128        0.72108
C          2.81089        0.13668        0.39519
C          1.97234        1.29686        0.33824
C          0.67949        0.83546       -0.02761
C         -0.36316        1.79849       -0.25839
N         -1.73714        1.63721       -0.44768
C         -2.59978        0.56769       -0.16147
C         -3.82932        1.14859       -0.15741
C         -4.18695        0.00646        0.49306
N         -3.36080       -0.54028        0.97573
C         -2.36101       -0.67645        0.53073
C         -1.14272       -1.39906        0.35856
C         -0.35465       -1.18377       -0.72333
C          0.70938       -0.51250       -0.22280
C          2.04696       -0.96423        0.05016
N          2.37257       -2.01513       -0.05289
H          2.02277       -2.85691       -0.50592
H          3.38373       -2.11487        0.01935
H         -0.22915       -1.94950       -1.48399
H         -1.02796       -2.30339        0.94773
H         -5.23049       -0.26938        0.27609
H         -4.31563        1.43284       -1.08799
H         -0.55179        2.88163       -0.29677
H          2.26883        2.32458        0.52348
