25
Coordinates from ORCA-job ./opt_b97-3c_parallel
N         -5.67289       -0.56232       -0.70270
C         -4.54017       -0.46751       -0.59181
C         -3.13086       -0.34089       -0.40502
C         -2.54188        0.88223        0.00688
C         -1.18194        0.52402        0.18919
C         -0.39470        1.33994        1.06128
N          0.69020        1.90469        0.52933
C          1.60433        1.32298       -0.26127
N          2.63820        2.05772       -0.78986
C          3.64822        1.17541       -1.14073
N          3.29063       -0.10481       -0.75026
C          2.01531       -0.04163       -0.23633
C          1.41937       -1.22367        0.35761
C          2.19061       -2.41690        0.56160
N          2.83136       -3.35105        0.70835
C          0.08085       -1.60911        0.36786
C         -1.04781       -0.82106       -0.05379
C         -2.23800       -1.37419       -0.46539
H         -2.52870       -2.38106       -0.17082
H         -0.15452       -2.66559        0.50275
H          4.65464        1.27774       -1.57744
N         -0.47178        2.33335        1.53678
H         -0.32984        3.31980        1.75300
H         -1.34136        2.06398        1.99529
H         -3.04122        1.81199        0.26106
