30
Coordinates from ORCA-job ./opt_b97-3c_parallel
N         -4.26290       -3.33434       -0.47576
C         -3.77643       -2.30074       -0.51073
C         -3.19273       -0.99542       -0.51360
C         -3.92384        0.13852       -0.72083
N         -3.13290        1.14983       -0.37373
C         -1.86815        0.72916        0.01912
C         -1.88491       -0.68669       -0.05655
C         -1.00916       -1.63700        0.54820
C         -0.06416       -1.21426        1.41508
C          1.01610       -0.94759        0.64707
C          2.12053       -1.82016        0.43621
C          3.18456       -1.05163       -0.13815
C          4.43446       -1.71011       -0.39556
N          5.44401       -2.21596       -0.57233
C          2.73136        0.25418       -0.26453
N          3.50570        0.93101       -0.67964
H          4.47153        1.05754       -0.97776
H          2.95799        1.67464       -1.10958
C          1.35713        0.29912        0.21002
C          0.57386        1.53663        0.33358
N          1.27168        2.40438        0.34980
H          0.99858        3.36109        0.56998
H          2.21051        2.27205        0.72292
C         -0.83272        1.70156        0.37505
C         -1.28870        3.06669        0.52139
N         -1.61722        4.15734        0.63619
H          2.17983       -2.86111        0.73817
H          0.04422       -1.67861        2.39211
H         -1.26498       -2.69015        0.48212
H         -4.94048        0.42738       -1.02683
