30
Coordinates from ORCA-job ./opt_b97-3c_parallel
N          2.09963        3.43544       -0.22412
C          1.50037        2.46825       -0.12087
C          0.69108        1.29526        0.00919
C         -0.72224        1.60171        0.19948
C         -1.86042        0.70952        0.17193
C         -1.88607       -0.67320       -0.25431
C         -1.15822       -1.86881       -0.57621
N         -0.51550       -1.72470        0.53826
C          0.66632       -1.24401        0.33711
C          1.78428       -2.13739        0.34753
C          3.04771       -1.65657        0.13101
N          4.10096       -2.48674        0.20300
H          5.04444       -2.10645        0.27252
H          4.06022       -3.32489        0.77995
C          2.68041       -0.34763       -0.03461
C          3.78279        0.53029       -0.29601
N          4.68507        1.20128       -0.49846
C          1.27335       -0.04972        0.08225
H          1.61973       -3.19707        0.52579
H         -1.14059       -2.73385       -1.25674
C         -3.32116       -0.79903       -0.11713
N         -4.00720        0.28301        0.25395
C         -3.14547        1.28021        0.43516
N         -3.81414        2.11200        0.71058
H         -3.10049        2.70515        1.13219
H         -4.68341        2.64350        0.74235
N         -4.18829       -1.48334       -0.19049
H         -5.19869       -1.36315       -0.26259
H         -4.03490       -2.47357       -0.00113
H         -0.96532        2.65304        0.33522
