32
Coordinates from ORCA-job ./opt_b97-3c_parallel
N         -0.38388       -2.12268        1.80679
C         -0.14581       -1.27775        0.79166
C          0.98642       -1.53988        0.08538
C          2.08156       -0.63949       -0.20229
C          2.23456        0.77724        0.05587
C          1.28254        1.78406        0.48012
C         -0.11490        1.47728        0.61043
N         -0.43014        2.00714        1.52804
H         -0.15232        2.96848        1.71426
H         -1.43603        1.95593        1.68080
C         -1.17488        0.70330        0.03006
C         -2.26799        1.13793       -0.66818
C         -2.94869       -0.01209       -0.96326
C         -2.32953       -1.09802       -0.49521
N         -2.79220       -2.35070       -0.62711
H         -3.44180       -2.58322       -1.37567
H         -2.16970       -3.14371       -0.48497
C         -1.18990       -0.70138        0.13965
H         -3.89340       -0.04177       -1.50396
N         -2.66298        2.11716       -0.98988
H         -1.88658        2.71906       -0.72042
H         -3.41126        2.72290       -1.32002
H          1.66341        2.79996        0.56357
C          3.51656        1.08228       -0.28071
C          4.09098       -0.02081       -0.74294
C          3.26579       -1.05961       -0.72291
H          3.50364       -2.07051       -1.04563
H          5.11813       -0.06802       -1.09625
H          3.98648        2.05957       -0.19762
H          1.15749       -2.56432       -0.23237
H         -1.34349       -2.38408        2.02521
H          0.19562       -2.95183        1.91923
