31
Coordinates from ORCA-job ./opt_b97-3c_parallel
N          5.54435        1.75717        1.27970
C          4.53194        1.33319        0.96754
C          3.27927        0.78363        0.54350
C          2.11144        1.61411        0.49148
C          1.02837        0.81341       -0.00780
C          1.53562       -0.43729       -0.23905
C          0.96006       -1.51614       -0.99031
N         -0.25248       -2.15331       -0.79407
C         -1.05374       -1.67191        0.17472
N         -1.86357       -2.54950        0.86952
C         -2.97721       -1.86210        1.30862
C         -2.95712       -0.54002        0.77210
C         -4.02471        0.39574        0.93871
N         -4.90493        1.11146        1.06748
C         -1.69465       -0.39416        0.09882
C         -1.39485        0.66327       -0.84654
C         -2.47077        1.33835       -1.52113
N         -3.32037        1.85426       -2.08373
C         -0.19767        1.42332       -0.50510
N         -0.13888        2.52016       -0.65676
H          0.67761        3.09454       -0.86248
H         -0.95147        3.11970       -0.80098
H         -3.82883       -2.25298        1.88748
N          0.99013       -2.48620       -1.51913
H          1.11825       -3.48517       -1.67852
H          1.83813       -2.03184       -1.85756
C          2.94199       -0.46628        0.05644
N          3.65963       -1.29694       -0.08931
H          4.55555       -0.87877        0.16442
H          3.87906       -2.23414       -0.42474
H          2.08644        2.67601        0.72198
