28
Coordinates from ORCA-job ./opt_b97-3c_parallel
N         -1.80958       -3.75774        0.33187
C         -1.44253       -2.70582        0.07673
C         -0.95058       -1.39089       -0.21993
C          0.04960       -1.36997       -1.13434
C          1.13035       -1.24943       -0.32630
C          1.77032       -0.00831       -0.06687
C          1.25867        1.25476       -0.54104
C         -0.07182        1.65685       -0.69912
C         -0.05395        3.03432       -1.10331
N         -0.01555        4.15737       -0.89191
C         -1.33090        1.09138       -0.21641
C         -2.47879        1.80684       -0.00070
C         -3.37136        1.02709        0.58181
C         -2.88609       -0.18850        0.73595
C         -1.63930       -0.20070        0.18591
H         -3.40851       -1.03113        1.18323
H         -4.36556        1.34312        0.88913
H         -2.63555        2.85616       -0.23980
H          2.04928        1.99151       -0.67375
C          3.05691       -0.25196        0.31409
C          3.16900       -1.57545        0.34659
C          2.05145       -2.19583       -0.00632
H          1.90668       -3.27247       -0.05635
H          4.08002       -2.09906        0.62837
N          4.05626        0.59183        0.61367
H          3.85475        1.54453        0.91092
H          4.87248        0.26269        1.12541
H          0.05609       -2.03581       -1.99530
