30
Coordinates from ORCA-job ./opt_b97-3c_parallel
N          4.63684        2.36899        0.67619
C          4.05424        1.39182        0.58824
C          3.27863        0.19245        0.44904
C          3.73836       -1.05582        0.96180
N          2.77301       -1.27583        0.45204
C          1.78698       -1.39251       -0.04673
C          2.08452       -0.04860       -0.16730
N          1.50416        0.94071       -0.88679
C          0.15070        0.93785       -1.17732
N          0.48890        1.87934       -1.65026
H          1.00674        2.67467       -2.02412
H         -0.47706        2.19517       -1.55158
C         -0.80888        0.36728       -0.26471
C         -1.95051        1.13952        0.13701
C         -2.96243        0.17442        0.48821
C         -4.28776        0.51029        0.92203
N         -5.34467        0.80505        1.23914
C         -2.50224       -1.16140        0.19581
N         -3.09262       -2.09254        0.27988
H         -4.07888       -1.94107        0.49241
H         -2.97593       -3.09973        0.17714
C         -1.15117       -1.01437       -0.26412
C         -0.43224       -2.05738       -0.80918
C          0.93650       -2.11409       -0.95616
H          1.35455       -3.04926       -1.31783
H         -0.97202       -2.96648       -1.06053
N         -2.02544        2.24484        0.11556
H         -1.78205        2.91531        0.84512
H         -3.04255        2.27953        0.03424
H          4.65101       -1.35163        1.50133
