31
Coordinates from ORCA-job ./opt_b97-3c_parallel
N         -2.39217       -3.46758        1.47588
C         -1.70830       -2.60406        1.17689
C         -0.88141       -1.52116        0.75083
C          0.32962       -1.77285        0.02326
C          1.29702       -0.74571       -0.32337
C          1.57043        0.53485        0.12854
C          0.84238        1.63650        0.43294
N          1.51899        2.72319        0.85979
H          1.86208        2.75245        1.82152
H          1.12800        3.65139        0.68694
C         -0.48156        1.84236        0.36719
C         -1.42058        0.97331       -0.10993
N         -2.50058        1.70679       -0.57236
C         -3.65876        0.96033       -0.65155
C         -2.99988       -0.12191       -0.15269
C         -1.60985       -0.36436        0.32907
H         -3.53251       -1.06695       -0.06145
N         -4.64381        1.36596       -0.94507
H         -5.50675        0.81897       -0.94064
H         -4.94263        2.33271       -1.08363
H         -0.84516        2.82050        0.69537
C          2.95577        0.59643        0.05330
N          3.49899       -0.48254       -0.63430
C          2.45274       -1.28178       -0.82685
N          3.07302       -2.10815       -1.23772
H          3.97316       -2.52620       -0.98611
H          2.69024       -2.74324       -1.94176
N          3.94481        1.09837        0.12538
H          4.95044        1.11492        0.31239
H          3.64827        2.07408        0.21061
H          0.59663       -2.81280       -0.15196
