25
Coordinates from ORCA-job ./opt_b97-3c_parallel
N         -3.59735       -2.67179       -0.27470
C         -3.10166       -1.64585       -0.19396
C         -2.50394       -0.34777       -0.12614
C         -3.09946        0.88541       -0.13607
N         -2.24564        1.91157       -0.06029
C         -0.98854        1.32157       -0.00749
N          0.19374        2.07362        0.07294
C          1.54743        1.69185        0.05949
C          2.16843        0.39093       -0.09146
C          1.61162       -0.85266       -0.19391
C          2.75376       -1.60940       -0.33366
N          3.95249       -0.90985       -0.31931
C          3.53462        0.33943       -0.16369
N          4.56067        0.76389       -0.17531
H          4.91848        1.57041       -0.69167
H          5.39946        0.32300        0.21233
H          3.09617       -2.64924       -0.46234
C          0.52601       -1.61424        0.12144
N         -0.30796       -0.90196       -0.00096
C         -1.08567       -0.11645       -0.03645
H          0.31695       -2.62586        0.50474
H          1.81512        2.75644        0.15451
N         -4.12263        1.31358       -0.19308
H         -4.89587        0.64456       -0.24369
H         -4.57552        2.22971       -0.24398
