25
Coordinates from ORCA-job ./opt_b97-3c_parallel
N         -5.27910       -0.12467        0.39951
C         -4.14695       -0.04593        0.27306
C         -2.72779        0.03581        0.07550
C         -1.91838        1.14007       -0.13251
N         -2.29864        2.18074       -0.15719
H         -3.24468        2.01287       -0.50456
H         -2.33044        3.10711        0.26903
C         -0.62021        0.70948       -0.26105
C          0.42632        1.70776       -0.43387
N          1.74353        1.68595       -0.11333
C          2.65913        0.72665        0.13781
N          3.89725        1.00313        0.66321
C          4.60738       -0.18633        0.69171
N          3.81564       -1.18383        0.13695
C          2.60201       -0.64306       -0.22921
N          1.61802       -1.17067       -0.86805
C          0.47668       -1.56066       -0.42836
C         -0.61218       -0.66156       -0.17720
C         -1.88431       -1.14222        0.04832
N         -2.17442       -2.20689        0.14430
H         -2.14230       -3.16811        0.48509
H         -3.15009       -2.04011       -0.10182
H          0.40133       -2.66025       -0.41386
H          5.63609       -0.19889        1.08965
H          0.29776        2.80051       -0.49251
