30
Coordinates from ORCA-job ./opt_b97-3c_parallel
N          4.51605        1.80546        0.02157
C          3.67419        1.03539        0.10126
C          2.63683        0.05658        0.23808
C          2.82887       -1.08196        1.07319
N          1.82055       -1.27816        0.64345
C          0.80555       -1.25636        0.18142
C          1.39725       -0.11515       -0.30465
N          0.95812        0.69210       -1.22307
C          0.19750        1.68194       -0.89771
N          0.75656        2.53233       -1.32321
H          1.59143        2.80808       -1.83635
H         -0.03608        2.66625       -1.94702
C         -0.96059        1.58368       -0.05131
C         -1.69621        2.62845        0.39586
C         -2.77692        2.11411        0.95908
C         -2.79484        0.78441        0.93140
N         -3.76778        0.05646        1.50491
H         -3.55270       -0.85900        1.89591
H         -4.44561        0.50538        2.11760
C         -1.64390        0.36457        0.30656
C         -1.54967       -0.79432       -0.57784
N         -2.49671       -1.25362       -0.93084
H         -3.30873       -0.81873       -0.49451
H         -2.67713       -2.25571       -0.95548
C         -0.40183       -1.70064       -0.46561
C         -0.46235       -3.08967       -0.82893
N         -0.54103       -4.19649       -1.10676
H         -3.55976        2.72016        1.40937
H         -1.45709        3.68427        0.29370
H          3.52571       -1.59717        1.75108
