33
Coordinates from ORCA-job ./opt_b97-3c_parallel
N         -3.67466       -2.63619       -1.22150
C         -2.88029       -1.87958       -0.89876
C         -1.84812       -0.93445       -0.52679
C         -0.51103       -1.33609       -0.65143
N         -0.26153       -2.34603       -1.05075
H          0.64700       -2.59151       -1.44051
H         -0.91764       -3.06469       -1.35370
C          0.61473       -0.64283       -0.20917
C          0.89023        0.69122       -0.31880
C          2.25542        0.95510        0.04184
C          2.78587       -0.24127        0.48142
C          4.12239       -0.47874        0.97012
N          5.19277       -0.65679        1.32911
C          1.80399       -1.29404        0.31602
N          2.07616       -2.33547        0.58892
H          2.70361       -2.73503        1.28436
H          1.15286       -2.73350        0.75241
N          2.86901        1.87748        0.00801
H          3.88326        1.95070        0.07052
H          2.55785        2.58033       -0.66002
C          0.16397        1.61200       -1.15962
N          0.53660        2.49598       -1.71209
H          1.23468        2.17693       -2.38111
H          0.36038        3.47901       -1.91084
C         -0.94334        2.23712       -0.47258
C         -1.81364        1.46977        0.37575
C         -2.74170        2.20517        1.15520
C         -3.69265        1.24222        1.60646
N         -3.40727        0.03886        1.07823
C         -2.22631        0.15947        0.35311
H         -4.60815        1.31229        2.21275
H         -2.76559        3.27688        1.32436
H         -1.17036        3.30509       -0.55538
