25
Coordinates from ORCA-job ./opt_b97-3c_parallel
N         -2.42347       -2.72144       -1.41849
C         -1.72901       -1.90053       -1.03058
C         -0.82335       -0.89314       -0.53302
C         -1.33664        0.17928        0.29419
N         -2.63415        0.15061        0.73456
C         -2.97060        1.48257        0.88605
N         -2.05849        2.31582        0.47097
C         -1.07858        1.56414        0.08080
C         -0.20160        1.97308       -0.98087
C          1.08440        1.49877       -1.10739
C          1.69679        0.91496        0.05469
C          2.96691        1.19173        0.45706
C          3.50441        0.07600        0.92752
C          2.65969       -0.94169        0.85692
C          1.49630       -0.48837        0.29747
C          0.53082       -1.23282       -0.49420
N          0.97109       -2.20722       -0.80171
H          0.40863       -3.01831       -0.55007
H          1.94023       -2.51576       -0.84380
H          2.85952       -1.95823        1.18825
H          4.51406        0.00470        1.32483
H          3.45561        2.16172        0.40507
H          1.72660        2.07795       -1.76360
H         -0.47225        2.87846       -1.51573
H         -4.01954        1.52224        1.21646
