35
Coordinates from ORCA-job ./opt_b97-3c_parallel
N          4.00846        1.26028        1.79085
C          3.30013        0.50925        1.29929
C          2.42235       -0.40780        0.63983
C          2.72383       -1.80012        0.50983
N          1.78774       -1.87240       -0.06965
C          0.95725       -1.38103       -0.61003
C         -0.19141       -1.66096       -1.28344
C         -1.32903       -1.64656       -0.52987
N         -1.65080       -2.69925       -0.63444
H         -2.43102       -2.26121       -1.12059
H         -1.54354       -3.63379       -1.02488
C         -1.89650       -0.50652        0.15956
C         -1.54698        0.88132        0.16725
C         -0.48045        1.62976       -0.48772
N         -0.59108        2.71356       -0.68641
H         -1.53191        3.06647       -0.51928
H         -0.01519        3.50928       -0.95523
C          0.76651        0.99405       -0.86383
C          1.83046        1.61696       -1.59894
N          2.68900        2.08209       -2.19386
C          1.19026       -0.09704       -0.02735
C         -2.64281        1.50657        0.85217
C         -3.61030        0.63593        1.30434
C         -3.14305       -0.57935        0.85863
N         -3.87287       -1.37110        1.10755
H         -4.88871       -1.44329        1.09787
H         -3.51230       -2.16351        0.57925
H         -4.67436        0.88647        1.24690
N         -2.95203        2.52174        1.16653
H         -1.97075        2.66747        1.39757
H         -3.48732        2.75930        2.00004
H         -0.23318       -1.53443       -2.36471
N          3.37208       -2.67327        0.68819
H          3.75171       -3.52309        1.09958
H          4.08484       -1.95254        0.78343
