28
Coordinates from ORCA-job ./opt_b97-3c_parallel
N         -5.33517       -0.08394       -0.23342
C         -4.21030       -0.02116       -0.03461
C         -2.77173        0.00960        0.00496
C         -1.96216       -1.10726        0.05566
N         -2.33030       -2.15516        0.06923
H         -3.29514       -2.35306       -0.19127
H         -1.78149       -2.97159       -0.19027
C         -0.60562       -0.63810        0.08272
C          0.38439       -1.66869        0.17937
N          1.75995       -1.67874        0.17731
C          2.70336       -0.67988        0.06353
C          4.05325       -1.13035        0.03875
C          4.86539       -0.05956       -0.08245
C          4.09752        1.01714       -0.12243
C          2.76657        0.69783       -0.02944
C          1.77236        1.73438       -0.00727
C          0.39884        1.71101        0.03072
C         -0.57270        0.72964        0.04086
C         -1.94132        1.19053        0.00181
N         -2.42418        2.18838       -0.03379
H         -1.89847        2.99392        0.29741
H         -3.41231        2.41801        0.05821
H          0.01061        2.72472        0.02192
H          2.19607        2.73348       -0.04826
H          4.47975        2.02948       -0.23164
H          5.95026       -0.07997       -0.14952
H          4.35054       -2.17238        0.10322
H          0.35082       -2.76626        0.24968
