29
Coordinates from ORCA-job ./opt_b97-3c_parallel
N          4.14758        2.31316       -0.55886
C          3.46187        1.57717       -0.01316
C          2.58230        0.43904        0.05426
C          3.25430       -0.77144        0.00495
N          4.28080       -1.19005       -0.05774
H          4.79469       -2.05818       -0.19434
H          4.85304       -0.44257       -0.44794
C          2.45505       -1.88726        0.07294
C          1.24427       -1.26375        0.12289
N          0.20045       -2.11971        0.11660
C         -1.17251       -1.86197        0.04865
C         -2.01062       -0.68288       -0.03945
C         -3.37292       -0.77686       -0.18391
C         -3.85903        0.50623       -0.20307
C         -2.89322        1.41557       -0.08305
N         -3.11497        2.73923       -0.04242
H         -3.99012        3.12744       -0.38883
H         -2.36620        3.39743       -0.24899
C         -1.73589        0.71018        0.00541
C         -0.41312        1.21133        0.12185
N          0.67128        1.12900        0.20455
C          1.17755        0.15382        0.15707
H         -0.33074        2.30869        0.15035
H         -4.91549        0.75916       -0.28655
N         -4.09399       -1.60733       -0.28703
H         -3.56721       -2.32639       -0.77924
H         -5.03440       -1.61322       -0.67746
H         -1.49294       -2.91421        0.03325
H          2.59577       -2.75764       -0.57101
