30
Coordinates from ORCA-job ./opt_b97-3c_parallel
N         -0.36593        4.29798       -0.51954
C         -0.16632        3.19520       -0.29390
C          0.12271        1.82556        0.00981
C         -0.73749        1.31253        0.91682
C         -1.57848        0.43984        0.31402
C         -1.43161       -0.96365        0.20224
C         -0.31690       -1.66085        0.62532
C          1.08031       -1.21621        0.64117
C          1.79347       -2.37275        1.10644
N          2.28950       -3.35037        1.43078
C          1.74470       -0.14141        0.03289
C          1.32383        1.16627       -0.41120
C          2.36212        1.79360       -1.01774
C          3.41831        1.00532       -0.93311
C          3.08825       -0.16935       -0.30955
C          4.27369       -0.97673       -0.31505
N          4.67946       -1.84285       -0.94370
H          4.40329        1.27214       -1.31812
H          2.35081        2.78818       -1.45812
H         -0.50563       -2.70806        0.86317
C         -2.56951       -1.66496       -0.10279
C         -3.38890       -0.57857       -0.27880
C         -4.68558       -1.09133       -0.61020
N         -5.80453       -1.20861       -0.40834
C         -2.86708        0.73244       -0.02859
N         -3.48910        1.64450       -0.07460
H         -3.38473        2.47507       -0.65515
H         -4.44973        1.32443       -0.19209
H         -2.54268       -2.48606       -0.81726
H         -1.02027        1.84929        1.82041
