29
Coordinates from ORCA-job ./opt_b97-3c_parallel
N          1.17359        3.63807        0.60051
C          1.02794        2.55942        0.25661
C          0.79191        1.21147       -0.15223
C         -0.41708        1.11258       -0.78561
C         -1.51689        0.47316       -0.28656
C         -1.72035       -0.90570       -0.03170
C         -0.75921       -1.95628       -0.25605
C          0.43725       -1.73505       -0.88251
C          1.57981       -1.21790       -0.33663
C          2.74793       -1.87767       -0.07469
C          3.61330       -0.90998        0.40082
N          2.99573        0.28726        0.46030
C          1.75643        0.14577        0.00199
N          4.67682       -0.87435        0.70796
H          5.30738       -1.67746        0.72720
H          5.27859       -0.06252        0.85427
H          3.09827       -2.67937       -0.72412
H          0.50510       -2.06465       -1.91797
H         -1.06635       -2.97035       -0.01519
C         -3.06233       -1.08537        0.44508
N         -3.64884        0.18734        0.46536
C         -2.71519        1.06286        0.02828
N         -3.21725        2.05167        0.04288
H         -2.72518        2.94517       -0.03217
H         -4.20696        2.31009        0.05939
N         -3.81800       -1.82385        0.77904
H         -3.61467       -2.77148        1.10376
H         -4.83763       -1.79286        0.70598
H         -0.48644        1.51691       -1.79447
