24
Coordinates from ORCA-job ./opt_b97-3c_parallel
N          5.31223        0.64998        0.55515
C          4.19102        0.52722        0.37972
C          2.79050        0.33227        0.15425
C          1.95628        1.42130        0.11195
C          0.75763        0.78772       -0.08373
C         -0.50589        1.46659       -0.14739
N         -1.60672        1.46786       -0.24589
C         -2.44075        0.75087       -0.10923
C         -3.68877        1.12213        0.25238
C         -4.49240        0.06957        0.36732
N         -3.77602       -1.01189        0.07880
C         -2.47436       -0.66391       -0.23196
N         -1.41566       -1.33775       -0.55406
C         -0.15230       -1.56492       -0.40025
C          0.88609       -0.58072       -0.17947
C          2.18763       -0.95582       -0.02750
N          2.62385       -1.97212       -0.03382
H          3.61713       -1.74420       -0.08144
H          2.56286       -2.88190        0.42026
H         -0.04412       -2.65739       -0.48091
H         -5.54281       -0.13205        0.62769
H         -4.00148        2.14956        0.43220
H         -0.42666        2.56072       -0.04567
H          2.22257        2.30663       -0.46231
