28
Coordinates from ORCA-job ./opt_b97-3c_parallel
N          5.73462        1.94986       -0.79144
C          4.69934        1.52711       -0.55508
C          3.42131        0.98324       -0.22339
C          2.32373        1.73913        0.10327
C          1.36553        0.79824        0.39392
C          1.84115       -0.48030        0.20846
C          1.17282       -1.74278        0.39819
N         -0.09147       -1.85432        0.66426
C         -1.23921       -1.56301        0.13252
C         -2.18613       -2.40527       -0.36823
C         -3.22266       -1.71085       -0.82926
C         -3.00977       -0.37599       -0.65791
C         -3.92287        0.67285       -0.98971
N         -4.68275        1.48727       -1.24537
C         -1.72425       -0.22889       -0.04442
C         -1.04083        0.98637        0.33996
C         -1.53463        2.31954        0.18712
N         -1.90896        3.39550        0.09473
C          0.15671        1.01232        0.99187
H          0.14501        1.15634        2.06973
H         -4.10932       -2.14585       -1.28460
H         -2.10248       -3.48919       -0.39486
N          1.40436       -2.81867        0.33728
H          0.89447       -3.64781        0.63576
H          1.84062       -2.42661        1.16939
C          3.19274       -0.42072       -0.19456
H          3.88293       -1.23235       -0.40322
H          2.42047        2.64750        0.69375
