30
Coordinates from ORCA-job ./opt_b97-3c_parallel
N          6.23547        0.26888        0.18934
C          5.10310        0.24129        0.03927
C          3.67891        0.21564       -0.10516
C          2.97944       -1.02498        0.01526
C          1.57174       -0.77168       -0.13243
C          1.44405        0.58037       -0.35232
C          0.36365        1.48618       -0.61687
N         -0.95062        1.31328       -0.48679
C         -1.75920        0.30110       -0.18162
C         -1.69568       -1.04925        0.02322
N         -2.96847       -1.53866        0.28336
C         -3.82274       -0.50442        0.26057
N         -4.78963       -0.98755        0.49980
H         -5.34310       -0.13511        0.61097
H         -5.37447       -1.74931        0.84189
C         -3.11992        0.70467       -0.05285
C         -3.87652        1.91881       -0.13840
N         -4.91170        2.21892        0.24184
C         -0.70993       -2.01225        0.01747
C          0.67636       -1.91507       -0.05957
N          1.07407       -2.94816        0.02091
H          1.96826       -2.94206       -0.46786
H          0.82667       -3.93027        0.13626
H         -1.12557       -3.01858        0.14260
H          0.30720        2.56453       -0.83236
C          2.74329        1.19865       -0.35050
N          3.04816        2.25444       -0.48905
H          4.05430        2.41850       -0.48496
H          2.60757        3.16029       -0.34107
H          3.45242       -1.98351        0.20941
