26
Coordinates from ORCA-job ./opt_b97-3c_parallel
N         -3.27696       -1.31394        0.76788
C         -2.53444       -0.26047        0.39328
C         -2.89267        1.06579        0.48691
C         -2.10102        2.15035        0.19035
C         -1.06840        1.39343       -0.24970
C          0.14630        1.95028       -0.79339
N          1.21660        1.29292       -1.09857
C          1.84458        0.44159       -0.35325
C          1.57669       -0.84361        0.07273
N          0.50938       -1.61165       -0.24077
C         -0.52857       -0.95606       -0.89667
N         -0.81237       -2.01861       -1.03003
H         -1.80175       -1.94387       -0.78453
H         -0.72419       -2.86021       -1.59765
C         -1.30118       -0.00619       -0.11839
C          2.64629       -1.30090        0.79005
C          3.58016       -0.36678        0.86804
C          3.13416        0.71807        0.19086
H          3.67156        1.64758        0.02947
H          4.54128       -0.45865        1.36902
H          2.72617       -2.29355        1.22917
H          0.34566        3.02714       -0.90787
H         -1.95040        2.94992        0.91236
H         -3.89769        1.28279        0.83845
H         -4.26016       -1.16653        1.00044
H         -2.91781       -1.96115        1.46957
