32
Coordinates from ORCA-job ./opt_b97-3c_parallel
N         -6.75231       -0.64104       -0.33625
C         -5.63760       -0.48012       -0.14267
C         -4.23687       -0.28889        0.05662
C         -3.33910       -1.37453        0.09127
C         -2.06155       -0.76385        0.24737
C         -2.24311        0.60745        0.33373
C         -1.30270        1.65014        0.69542
N         -1.71718        2.64807        0.95016
H         -2.67771        2.68120        1.28682
H         -1.30856        3.55994        1.14737
C          0.07610        1.79293        0.65397
C          1.09823        0.88317        0.19868
C          2.42489        1.39590       -0.04993
C          2.78739        2.78781       -0.00674
N          3.04524        3.90065        0.01830
C          3.39297        0.47986       -0.40731
C          2.59444       -0.64097       -0.32671
C          3.46898       -1.73218       -0.66460
N          3.94154       -2.53393       -1.32769
C          1.21275       -0.45764        0.02302
C          0.37041       -1.60900        0.23868
C          0.83953       -2.96915        0.24765
N          1.22196       -3.92941        0.73667
C         -1.00454       -1.73555        0.35115
H         -1.42449       -2.74192        0.41258
N          4.69671        0.78306       -0.60190
H          5.30770        0.12706       -1.08619
H          4.97317        1.72854       -0.86144
H          0.48410        2.77570        0.89366
C         -3.59049        0.89632        0.20791
H         -3.92868        1.77778       -0.33303
H         -3.57986       -2.42948       -0.00410
