32
Coordinates from ORCA-job ./opt_b97-3c_parallel
N         -0.79242       -3.74353       -1.04499
C         -0.72770       -2.70651       -0.57068
C         -0.58280       -1.40911        0.01490
C          0.68527       -1.15225        0.65123
N          1.11198       -1.51763        1.60369
H          1.60794       -1.31413        2.47153
H          0.34163       -2.13598        1.86023
C          1.62116       -0.39287       -0.13854
C          1.66309        1.01225       -0.20683
C          2.76953        1.35102       -1.04583
N          3.35851        0.15137       -1.47127
C          2.64818       -0.85049       -0.91131
N          3.15815       -1.76178       -1.27072
H          4.10694       -2.01317       -1.54629
H          2.63092       -2.63417       -1.23211
H          2.96736        2.41971       -1.22175
C          0.75457        1.91890        0.43490
N          0.78306        3.02156        0.41338
H         -0.05570        3.51127        0.10153
H          1.10242        3.50791        1.25103
C         -0.32069        1.45955        1.14290
C         -1.40576        0.94630        0.48615
C         -2.45582        1.78723        0.28625
C         -3.06255        0.76888       -0.40590
C         -2.79362       -0.54964       -0.67570
C         -1.59413       -0.36775       -0.05909
H         -2.84677       -0.94841       -1.68843
N         -4.01356        1.10874       -0.86091
H         -4.37895        2.04371       -1.03604
H         -4.79834        0.46740       -0.96799
H         -2.94713        2.27553        1.12735
H         -0.27964        1.41177        2.23028
