28
Coordinates from ORCA-job ./opt_b97-3c_parallel
N         -4.80980       -1.94518        1.53193
C         -4.09190       -1.11689        1.21107
C         -3.19413       -0.09862        0.76076
C         -4.10548        0.70801        0.14724
N         -3.32025        1.49938       -0.54833
C         -2.04119        1.01998       -0.37159
N         -1.11549        1.96275       -0.76611
C          0.24343        1.85073       -0.49822
C          1.06451        0.72348       -0.09032
C          2.43107        1.00192        0.24954
C          3.08214       -0.28012        0.35815
C          4.47004       -0.46410        0.67074
N          5.58448       -0.58443        0.89809
C          2.16301       -1.34298        0.03077
N          2.40503       -2.42073       -0.01300
H          3.42103       -2.49853        0.03124
H          2.04306       -3.36342        0.12957
C          0.90162       -0.70365       -0.21146
C         -0.19778       -1.49027       -0.72515
C         -1.55539       -1.06010       -0.59828
C         -1.78468       -0.11198        0.45725
H         -2.32755       -1.70022       -1.01889
H         -0.01646       -2.48987       -1.11197
N          2.89211        2.00199        0.36841
H          3.82138        1.70148        0.07441
H          3.01219        2.92565        0.78235
H          0.42208        2.92896       -0.63385
H         -5.13814        1.07905        0.05216
