31
Coordinates from ORCA-job ./opt_b97-3c_parallel
N         -6.27375       -0.34408        0.22447
C         -5.14235       -0.31619        0.06755
C         -3.71701       -0.29212       -0.08959
C         -3.02736        0.94128        0.10289
C         -1.64456        0.68042       -0.09912
C         -0.76177        1.80324       -0.00593
N          0.50443        1.75827       -0.19980
C          1.52400        0.99009       -0.07105
C          2.80526        1.52629        0.28947
C          3.88320        0.67142        0.35350
N          5.04855        1.08840        0.87719
H          5.05645        1.80385        1.60135
H          5.77113        0.40748        1.10538
C          3.21728       -0.45890       -0.04120
C          4.08630       -1.59334       -0.12998
N          4.48213       -2.59427       -0.51539
C          1.81966       -0.31121       -0.25089
C          0.99979       -1.42871       -0.63349
C         -0.38406       -1.50604       -0.68828
C         -1.45287       -0.65060       -0.40992
C         -2.76941       -1.25212       -0.40599
N         -3.15644       -2.27626       -0.57495
H         -4.08615       -2.59829       -0.31113
H         -2.48872       -2.86356       -0.07879
H         -0.68626       -2.51277       -0.95941
H          1.53098       -2.35437       -0.83267
H          2.89366        2.59159        0.48360
N         -0.71790        2.88977        0.17778
H         -1.36342        2.72942       -0.59253
H         -0.13174        3.67801       -0.09186
H         -3.47643        1.89916        0.34936
