28
Coordinates from ORCA-job ./opt_b97-3c_parallel
N         -1.10819       -3.57660        0.78057
C         -0.98801       -2.48445        0.47006
C         -0.79520       -1.11977        0.09465
C          0.43703       -1.07494       -0.50777
C          1.57133       -0.41604       -0.10634
C          1.80629        0.87708        0.27990
C          0.66530        1.55472       -0.05509
N         -0.57264        1.98541       -0.34619
C         -1.69824        1.23332       -0.30739
N         -2.96105        1.75607       -0.43876
C         -3.84157        0.70642       -0.19326
N         -4.88755        1.05142       -0.32524
H         -5.68747        0.43250       -0.17021
H         -5.30855        1.93022       -0.63793
C         -3.19986       -0.45851        0.17361
C         -1.87618       -0.15103        0.01304
H         -3.59667       -1.42974       -0.12140
H          0.83363        2.62215       -0.27136
C          3.18269        0.95064        0.38928
N          3.79113       -0.26019        0.06594
C          2.77183       -1.06452       -0.23305
N          3.34584       -1.97733       -0.50564
H          2.93528       -2.78890       -0.97585
H          4.32580       -2.24910       -0.37909
N          4.00315        1.66353        0.62235
H          3.99639        2.66882        0.81790
H          4.99488        1.41698        0.69354
H          0.50552       -1.58585       -1.46811
