24
Coordinates from ORCA-job ./opt_b97-3c_parallel
N         -0.06170       -4.33826        0.28686
C         -0.16036       -3.20491        0.18119
C         -0.32471       -1.78462        0.06275
C         -1.69832       -1.33937       -0.11919
C         -2.18295        0.01855       -0.17020
C         -1.54064        1.18858        0.09165
C         -0.53712        2.02055        0.48330
N          0.35900        1.46185       -0.26323
C          1.00456        0.35039       -0.11190
C          2.35134        0.63733       -0.13975
C          3.31738        1.68741       -0.27426
N          3.98305        2.51402       -0.70184
C          2.98828       -0.55837        0.01719
C          2.09609       -1.52743        0.14226
C          0.83547       -1.00216        0.05325
H          2.35684       -2.57439        0.27983
H          4.06676       -0.71072        0.03733
H         -0.47700        2.97725        1.02345
C         -2.70956        1.88896        0.09065
N         -3.99424        1.48872       -0.19708
C         -3.50215        0.28457       -0.37199
H         -4.27596       -0.43800       -0.67383
H         -3.13385        2.89431        0.23539
H         -2.45299       -2.11561       -0.21381
