28
Coordinates from ORCA-job ./opt_b97-3c_parallel
N         -2.12773       -3.63555        0.30797
C         -1.65632       -2.59787        0.23905
C         -1.11520       -1.26977        0.16935
C         -2.02179       -0.15816        0.10748
N         -3.31571       -0.24140        0.07839
C         -4.04866        0.81638       -0.06649
C         -3.14353        1.83307        0.03837
C         -1.93280        1.20604        0.09736
N         -1.04956        2.20401        0.19936
C          0.32565        2.12655        0.26087
C          1.28261        1.06816        0.13249
C          2.63859        1.50182        0.09821
C          3.46714        0.35356       -0.04354
C          4.89713        0.40374       -0.12389
N          6.03780        0.41393       -0.19250
C          2.62557       -0.81672       -0.08109
N          3.08288       -1.81865       -0.18789
H          4.09356       -1.91496       -0.28548
H          2.67094       -2.61612       -0.66911
C          1.25323       -0.36380        0.04266
C          0.26423       -1.32849        0.10238
H          0.66554       -2.34115        0.09098
H          2.98582        2.52891        0.15750
H          0.58659        3.19414        0.33051
H         -3.28925        2.76045       -0.51669
N         -5.12030        0.59159       -0.21840
H         -5.66098       -0.26909       -0.12606
H         -5.79497        1.32108       -0.45008
