32
Coordinates from ORCA-job ./opt_b97-3c_parallel
N          4.58988        2.10321       -0.65503
C          3.65400        1.87721       -0.03840
C          2.83762        0.70054        0.00506
C          3.28695       -0.51622       -0.44398
N          2.31006       -1.48155       -0.30322
C          1.23783       -0.88832        0.25926
C          1.50468        0.50924        0.47846
N          0.79939        1.23543        0.92897
C         -0.24251        1.57034        0.77425
C         -1.52540        1.10740        0.32364
C         -2.66152        1.93247        0.08051
C         -3.70732        1.24535       -0.49500
C         -3.19418       -0.02223       -0.68127
N         -3.93956       -0.65722       -1.19301
H         -4.94743       -0.50455       -1.20275
H         -3.70864       -1.11471       -2.07331
C         -1.87269       -0.18025       -0.15243
C         -1.08526       -1.39817       -0.13373
N         -1.41418       -2.32490       -0.65011
H         -2.40413       -2.10410       -0.75727
H         -1.36770       -3.31966       -0.43365
C          0.07471       -1.53678        0.59128
C          0.13686       -1.90240        1.64392
N          0.48408       -2.57470        2.50289
H         -4.72925        1.39829       -0.14140
N         -2.80440        3.01534        0.23846
H         -2.51316        3.54000        1.06124
H         -3.71729        3.37945       -0.03014
H         -0.17570        2.64014        1.02644
N          4.10609       -1.11313       -0.88790
H          4.74118       -0.40582       -1.26226
H          4.68138       -1.93026       -0.68340
