30
Coordinates from ORCA-job ./opt_b97-3c_parallel
N          4.68692        1.53697       -0.70144
C          3.56398        1.39831       -0.86597
C          2.67052        0.37172       -0.41975
C          3.14427       -0.90926       -0.22314
N          2.17116       -1.75620        0.29926
C          1.05134       -1.02435        0.42632
C          1.31841        0.31373        0.01074
C          0.56016        1.49768        0.25612
C         -0.51931        1.51558        1.06954
C         -1.52124        1.19220        0.22015
C         -2.52434        2.05386       -0.31925
C         -3.61050        1.43629       -0.89233
C         -3.27665        0.13500       -0.59538
N         -4.11351       -0.50465       -0.93240
H         -4.13991       -1.24473       -1.63170
H         -5.07906       -0.32559       -0.66007
C         -1.99988       -0.05643        0.02209
C         -1.53163       -1.34109        0.50383
N         -2.12927       -2.26988        0.56268
H         -3.01360       -1.76287        0.52094
H         -2.37081       -3.25961        0.54296
C         -0.15727       -1.72424        0.82672
H          0.01587       -2.75389        1.14623
H         -4.61115        1.83672       -0.72146
H         -2.46327        3.12658       -0.16465
H         -0.64871        2.30015        1.81221
H          0.97515        2.44756       -0.06967
N          3.97727       -1.63721       -0.25691
H          4.35739       -2.58339       -0.25705
H          4.77957       -1.00719       -0.30982
