25
Coordinates from ORCA-job ./opt_b97-3c_parallel
N         -3.93805       -2.27893        0.03214
C         -3.57571       -1.21741       -0.17811
C         -3.04456        0.08755       -0.43058
C         -3.84695        1.09182        0.02187
N         -2.71651        1.74996        0.16770
C         -1.44686        1.26890       -0.05608
N         -0.26346        1.80629        0.02720
C          1.01780        1.99351        0.13741
C          2.00592        0.93797        0.14312
C          3.37410        1.27368        0.39551
N          3.97469        0.09305        0.51741
C          3.06843       -0.86861        0.32883
N          3.82053       -1.65238        0.56817
H          4.74544       -1.77094        0.14149
H          3.87670       -2.21464        1.42312
C          1.70243       -0.48270       -0.00967
C          0.61710       -1.28888       -0.55093
N         -0.66468       -0.87784       -0.56189
C         -1.68251       -0.03729       -0.39110
N          0.43357       -2.28587       -1.00474
H          0.02309       -3.14958       -0.63250
H          0.69563       -2.53948       -1.96375
H          4.17968        2.00001        0.59253
H          1.11662        3.08440        0.26286
H         -4.90891        1.34396        0.17261
