30
Coordinates from ORCA-job ./opt_b97-3c_parallel
N         -3.99420       -2.38303        1.54203
C         -3.33344       -1.53407        1.15664
C         -2.47587       -0.50004        0.65753
C         -2.99436        0.71190        0.10396
C         -2.05282        1.57239       -0.39875
C         -0.90579        0.89768       -0.06229
C         -1.12715       -0.33316        0.51044
N         -0.39006       -1.34855        0.83147
C          0.20668       -1.87205       -0.19577
C          1.43285       -1.30759       -0.69052
C          2.25201       -1.94236       -1.57186
N          3.10594       -1.54780       -0.64443
C          3.29482       -0.74343        0.46643
N          4.22310       -0.69946        1.06165
H          3.87266        0.00343        1.71295
H          5.13458       -0.98980        1.41434
C          2.09643       -0.32108       -0.03100
C          1.61179        0.90908        0.19709
N          2.23018        1.82291        0.97642
H          1.68566        2.61274        1.32423
H          3.11718        2.21883        0.66826
C          0.43299        1.36445       -0.36168
C          0.63799        2.47651       -1.24672
N          0.83649        3.34394       -1.96370
H          2.68496       -2.67326       -2.27247
H         -0.35040       -2.76403       -0.52237
H         -2.12118        2.65067       -0.24804
N         -4.00526        1.12782       -0.05993
H         -4.42589        2.04773        0.06159
H         -4.69464        0.44785        0.25766
