28
Coordinates from ORCA-job ./opt_b97-3c_parallel
N         -4.87610       -0.25668        0.06277
C         -3.77751       -0.17620        0.07875
N         -2.91269       -1.24793        0.21296
C         -1.61719       -0.77830        0.17864
C         -0.63152       -1.72524        0.31464
C          0.73810       -1.71923        0.26837
C          1.69918       -0.67208        0.04358
C          3.00420       -1.10859       -0.02594
C          3.75304        0.00902       -0.21853
C          2.95932        1.06552       -0.25700
C          1.64443        0.69932       -0.09592
C          0.68559        1.70590       -0.08507
N          0.90832        2.79134       -0.15994
H          1.79428        2.84342        0.34096
H          0.67845        3.74662       -0.43112
C         -0.76399        1.72015       -0.03463
C         -1.69557        0.63148        0.02868
N         -3.02637        0.98021       -0.02163
H         -1.27998        2.68588       -0.08728
H          3.32844        2.07654       -0.41507
H          4.83669        0.05296       -0.33443
N          3.64769       -2.00715        0.01282
H          4.65531       -2.08622        0.14273
H          3.35864       -2.82416       -0.52120
H          1.18864       -2.70094        0.38800
H         -1.01514       -2.73141        0.46648
H         -5.43718       -1.09699        0.19613
H         -5.51492        0.47026       -0.25692
