30
Coordinates from ORCA-job ./opt_b97-3c_parallel
N         -2.42633       -3.25970        0.73226
C         -1.76076       -2.34885        0.52467
C         -0.92292       -1.21640        0.22348
C         -1.66620        0.01132       -0.04377
C         -1.11920        1.30528        0.01163
N         -0.12418        1.54965        0.78706
C          1.15011        1.64334        0.75042
C          1.95908        0.69090        0.07681
C          3.36723        0.88402       -0.07050
C          3.86244       -0.22815       -0.67956
C          2.88155       -1.09636       -0.89969
C          1.67464       -0.62770       -0.42986
C          0.50249       -1.46798       -0.11042
N          0.80968       -2.53396       -0.20566
H          0.11187       -3.27406       -0.25936
H          1.71696       -2.98985       -0.13252
H          3.02949       -2.04581       -1.41134
H          4.89958       -0.38509       -0.97352
N          4.10267        1.66039        0.20223
H          5.08069        1.84540       -0.01106
H          3.68887        2.54273        0.49445
H          1.62370        2.55642        1.13961
C         -2.07215        2.23477       -0.27453
C         -3.18646        1.42912       -0.31448
N         -4.23535        1.74926       -0.47489
H         -4.60912        2.68806       -0.61578
H         -5.03546        1.11761       -0.54744
C         -3.02884        0.07918       -0.12721
H         -3.62217       -0.66791       -0.64880
H         -2.08641        3.22449        0.17576
