27
Coordinates from ORCA-job ./opt_b97-3c_parallel
N         -1.61753       -3.48207        0.60778
C         -1.05553       -2.49531        0.48173
C         -0.39639       -1.22347        0.30159
C         -1.26990       -0.06111        0.12586
N         -2.61988       -0.22572       -0.07104
C         -3.09730        1.04245       -0.35914
C         -2.14528        2.03322       -0.43359
C         -1.04409        1.34052       -0.02378
C          0.08899        1.99310        0.55767
C          0.94873        1.34275        1.37764
C          1.85457        1.01685        0.42026
C          3.05917        1.71345        0.10131
N          3.15144        0.75381       -0.46736
C          3.17005       -0.29782       -0.85009
C          1.90488       -0.19316       -0.17927
C          0.97196       -1.30792       -0.02748
N          1.52401       -2.25217       -0.23766
H          1.26780       -3.23138       -0.35972
H          2.43734       -2.24780        0.21531
H          3.86401       -0.92536       -1.43050
H          3.88197        2.44267        0.04651
H          1.27084        1.78685        2.31740
H          0.12132        3.07786        0.49353
H         -2.35010        3.03327       -0.05659
N         -4.17491        0.84322       -0.50295
H         -4.63038       -0.02851       -0.77501
H         -4.92615        1.51981       -0.36651
