36
Coordinates from ORCA-job ./opt_b97-3c_parallel
N          0.00331        3.98764       -1.75315
C         -0.07323        2.85523       -1.62491
C          0.25544        1.63151       -0.93577
C          1.56183        1.36231       -0.54629
N          2.42318        2.03727       -0.74502
H          2.03774        2.96658       -0.91935
H          3.32173        2.01733       -1.22659
C          1.89708        0.19413        0.24895
C          1.40459       -1.07841        0.14293
C          0.41749       -1.63180       -0.77268
N          0.73571       -2.62702       -1.16105
H          1.02495       -2.39850       -2.11386
H         -0.05870       -3.26212       -1.26239
C         -0.88006       -1.12342       -0.87591
C         -1.84490       -1.92728       -1.58455
N         -2.57888       -2.59136       -2.15472
C         -1.30842       -0.01242       -0.04903
C         -0.76344        1.24850        0.01206
C         -1.73072        2.04898        0.56258
C         -2.82706        1.37724        0.88913
N         -3.90655        1.94600        1.44838
H         -4.60909        1.37849        1.92116
H         -3.83899        2.84212        1.92810
C         -2.62892        0.08835        0.50768
C         -3.48966       -1.01563        0.81396
N         -4.14058       -1.91355        1.08892
H         -1.60499        3.11607        0.73933
C          2.38565       -1.89382        0.79186
N          3.40349       -1.14144        1.35204
C          3.12768        0.13619        1.00577
N          4.07322        0.43998        1.48617
H          4.77625        0.55521        2.21568
H          3.75320        1.37691        1.24172
N          2.78444       -2.88888        1.06476
H          2.19059       -3.29678        0.34021
H          3.29991       -3.66264        1.48326
