32
Coordinates from ORCA-job ./opt_b97-3c_parallel
N          3.88920        1.84472       -1.16319
C          3.65747        1.62950       -0.06512
C          2.87066        0.44234        0.09493
C          3.39529       -0.81708       -0.06880
N          2.40257       -1.76549        0.09180
C          1.25463       -1.11705        0.37218
C          1.48448        0.29215        0.42416
N          0.67935        1.01486        0.65533
C         -0.30601        1.41578        0.37400
N         -0.13567        2.49410        0.56447
H         -0.44733        2.62808        1.52713
H          0.62992        3.15577        0.42806
C         -1.48610        0.72706       -0.08081
C         -2.61033        1.46290       -0.34251
N         -3.63353        0.67556       -0.66880
C         -3.10408       -0.60887       -0.56864
N         -4.01762       -1.12170       -0.93858
H         -3.72055       -2.07401       -1.16409
H         -5.02984       -1.12411       -1.08820
C         -1.77317       -0.61390       -0.17556
C         -1.12929       -1.72388        0.25994
N         -1.86937       -2.84760        0.36064
H         -1.41081       -3.73193        0.58547
H         -2.73816       -2.84115        0.89409
C          0.15847       -1.91022        0.61699
H          0.40964       -2.90248        0.99664
N         -3.15079        2.42988       -0.42345
H         -2.51501        3.19575       -0.18854
H         -4.05279        2.88500       -0.58663
N          4.28938       -1.43206       -0.29334
H          4.78125       -2.27994       -0.00482
H          4.99898       -0.84827       -0.74117
