30
Coordinates from ORCA-job ./opt_b97-3c_parallel
N         -5.42616       -0.25029       -1.13086
C         -4.32716       -0.13357       -0.84186
C         -2.95172       -0.02142       -0.45358
C         -2.29180       -1.18623        0.05091
C         -0.95410       -0.80773        0.34359
C         -0.16232       -1.67436        1.16832
N          1.05384       -2.04442        0.73532
C          1.80854       -1.43725       -0.19899
N          2.81872       -2.08567       -0.85549
C          3.55067       -1.09367       -1.48155
C          3.10706        0.16416       -1.16753
C          1.99089       -0.03800       -0.40567
C          1.62240        0.85602        0.67172
C          2.65710        1.71195        1.19295
N          3.50662        2.36342        1.58986
C          0.26090        1.35774        0.52357
N          0.05997        2.42684        0.73821
H         -0.91167        2.73320        0.69194
H          0.60659        3.24322        1.01093
C         -0.79111        0.53399        0.12929
C         -2.05157        1.03371       -0.38551
N         -2.45289        2.01669       -0.70019
H         -3.45736        2.16087       -0.59526
H         -2.11408        2.78403       -1.27911
H          3.15965        0.97636       -1.88948
H          4.43579       -1.35034       -2.08445
N         -0.00554       -2.62466        1.70532
H         -0.73642       -2.30703        2.34120
H          0.15639       -3.60745        1.92443
H         -2.74070       -2.16163        0.21489
