33
Coordinates from ORCA-job ./opt_b97-3c_parallel
N         -4.54260       -1.99856        0.35345
C         -3.77059       -1.16725        0.22525
C         -2.77342       -0.14505        0.07573
C         -3.13702        1.22079        0.21340
C         -2.10494        2.07728       -0.00775
C         -1.03221        1.23638       -0.18855
C         -1.42157       -0.09613       -0.18076
C         -0.83769       -1.31617       -0.48093
C          0.53729       -1.76210       -0.43194
N          0.55163       -2.85954       -0.58975
H         -0.15701       -3.57828       -0.72178
H          1.40794       -3.20294       -1.01979
C          1.68021       -1.04236        0.06536
C          2.86298       -1.77112        0.43636
C          3.96234       -1.03383        0.79264
C          3.45182        0.19527        0.45446
N          4.36221        0.81607        0.57139
H          5.08172        0.87603        1.28930
H          3.67281        1.53636        0.78337
C          2.06839        0.25571        0.06998
C          1.51364        1.47707       -0.45603
N          2.13601        2.37597       -0.64228
H          2.99867        1.90393       -0.91135
H          2.07961        3.22303       -1.20351
C          0.19558        1.88865       -0.57405
H          0.00484        2.94213       -0.80479
H          4.44164       -1.22639        1.75418
H          2.87589       -2.85703        0.44197
H         -1.54619       -2.12620       -0.66424
H         -2.22827        2.96108       -0.63550
N         -4.05455        1.79635        0.43711
H         -4.78669        1.09335        0.52072
H         -4.51724        2.69938        0.35414
