33
Coordinates from ORCA-job ./opt_b97-3c_parallel
N          6.05541        0.25534       -1.55745
C          4.98352        0.23780       -1.15701
C          3.65528        0.17257       -0.63987
C          2.77714        1.22357       -0.56529
C          1.68132        0.68803        0.08446
C          1.81763       -0.66347        0.26668
C          0.90744       -1.56916        0.94649
N          1.45043       -2.42683        1.40322
H          2.39613       -2.62353        1.72515
H          0.89329       -3.25299        1.61771
C         -0.48364       -1.50556        0.77424
C         -1.24365       -2.63051        1.26360
N         -1.76273       -3.49567        1.80245
C         -1.24544       -0.69350       -0.07527
C         -2.34757       -1.09778       -0.81666
C         -3.07020       -2.25968       -1.24765
N         -3.13700       -3.29546       -1.72585
C         -3.03946       -0.08893       -1.45111
C         -2.42418        1.01839       -0.95079
C         -2.92864        2.29882       -1.34388
N         -3.35335        3.30519       -1.67925
C         -1.26968        0.73617       -0.15896
C         -0.54377        1.71278        0.62307
C         -1.06936        3.00522        0.96678
N         -1.50767        4.00862        1.29472
C          0.77787        1.31210        1.02025
N          1.37569        1.81355        1.80955
H          2.37363        2.00849        1.74167
H          0.91668        2.72417        1.81378
H         -4.12398       -0.09956       -1.57529
C          3.13051       -1.04328       -0.13658
H          3.61311       -2.01251       -0.07903
H          3.13158        2.22770       -0.34847
