28
Coordinates from ORCA-job ./opt_b97-3c_parallel
N         -5.09037       -0.07341       -0.00893
C         -3.98146        0.10664        0.19526
C         -2.58725        0.34222        0.41048
C         -2.65235        1.62285        0.87542
N         -1.46686        2.14391        0.64861
C         -0.52038        1.21192        0.28738
N          0.33301        1.77102       -0.50921
C          1.61261        1.61027       -0.57093
N          1.87059        2.66125       -0.78007
H          1.89691        3.67748       -0.85674
H          2.73293        2.31953       -1.20309
C          2.27562        0.40180       -0.17205
C          3.58207        0.26210        0.15131
C          3.72832       -0.98693        0.56752
C          2.59519       -1.68703        0.53838
N          2.51338       -2.96631        0.93634
H          1.67165       -3.32642        1.38237
H          3.31724       -3.42778        1.36111
C          1.62164       -0.85618        0.05098
C          0.51381       -1.42283       -0.54509
C         -0.77437       -1.05939       -0.34593
C         -1.44163       -1.88112       -0.69527
N         -2.19450       -2.32597       -1.43299
C         -1.26078        0.08170        0.17902
H          0.74746       -2.36444       -1.06120
H          4.68049       -1.39493        0.90283
H          4.36002        1.01965        0.08392
H         -3.31744        2.45697        1.15189
