32
Coordinates from ORCA-job ./opt_b97-3c_parallel
N         -3.89607       -3.20250       -0.65640
C         -3.42640       -2.17140       -0.51551
C         -2.86874       -0.87264       -0.30748
C         -3.44354        0.37276       -0.26607
N         -2.61837        1.38926        0.03941
C         -1.36418        0.80240        0.21027
C         -1.50080       -0.61294        0.01950
C         -0.57977       -1.65416        0.36063
C          0.49593       -1.38054        1.13264
C          1.54157       -1.10844        0.31979
C          2.62282       -1.99815       -0.01166
N          3.61714       -1.31383       -0.62456
C          3.18484        0.00153       -0.65815
N          4.12542        0.34455       -1.13277
H          5.12101        0.20915       -1.31700
H          3.94666        1.33799       -1.28349
C          1.87243        0.14434       -0.08667
C          1.17639        1.41835        0.13477
N          1.96934        2.19741        0.03332
H          2.43595        2.41394        0.91585
H          1.65365        3.09750       -0.33489
C         -0.19264        1.66603        0.41256
C         -0.47496        3.05991        0.66320
N         -0.73079        4.15923        0.83925
N          3.04771       -3.01238        0.05369
H          2.50756       -3.72524        0.54240
H          3.97781       -3.40792       -0.08313
H          0.64512       -1.89315        2.08181
H         -0.88902       -2.68502        0.21451
N         -4.41924        0.88424       -0.38126
H         -5.25120        0.29471       -0.44483
H         -4.76513        1.84413       -0.43776
