26
Coordinates from ORCA-job ./opt_b97-3c_parallel
N         -4.20731       -1.66892       -0.76740
C         -3.51080       -0.77834       -0.60588
C         -2.66412        0.35078       -0.37508
C         -3.18779        1.61135       -0.32094
N         -2.19226        2.40808        0.05519
C         -1.00908        1.71303        0.22874
C          0.17780        2.49467        0.53060
C          1.58341        2.20277        0.30910
C          2.20982        0.94876       -0.01832
C          1.78326       -0.37448        0.23208
C          0.68810       -0.76747        0.91620
C         -0.47055       -0.81637        0.22536
C         -0.82179       -2.19065        0.03283
N         -1.04829       -3.29979       -0.11265
C         -1.28088        0.33977       -0.02896
H          0.74334       -1.06315        1.96247
C          2.86817       -1.20863       -0.19311
N          3.85784       -0.39587       -0.60512
C          3.55048        0.90832       -0.49943
H          4.22228        1.74512       -0.74523
N          3.36201       -2.18787       -0.32402
H          2.77035       -2.98845       -0.54730
H          4.32275       -2.52926       -0.35699
H          2.23012        3.07572        0.29670
H         -0.01842        3.54918        0.70468
H         -4.19998        2.00374       -0.50247
