29
Coordinates from ORCA-job ./opt_b97-3c_parallel
N          3.10096        2.94046       -1.04604
C          2.41565        2.08028       -0.73270
C          1.51150        1.03827       -0.34099
C          0.29083        1.50324        0.27708
C         -0.93837        0.77105        0.20386
C         -2.13731        1.53555        0.37185
N         -3.05796        0.86255       -0.31279
C         -2.46971       -0.20795       -0.85128
N         -3.33899       -0.64979       -1.37331
H         -3.22883       -1.65957       -1.45695
H         -4.34106       -0.46698       -1.42396
C         -1.08556       -0.47197       -0.50806
C         -0.96931       -1.31963        0.65640
N         -1.72695       -1.87876        1.24453
H         -1.52811       -2.86094        1.05307
H         -2.08785       -1.84458        2.19798
C          0.32484       -1.92555        0.84178
C          1.45312       -1.51815        0.15571
C          2.48867       -2.48458        0.03623
C          3.52461       -1.86002       -0.71684
N          3.18216       -0.59014       -0.98183
C          1.92355       -0.36266       -0.44142
H          4.51347       -2.17181       -1.08565
H          2.48527       -3.50500        0.40745
H          0.37533       -2.83695        1.43904
N         -2.75233        2.41133        0.63619
H         -3.57073        3.01600        0.57563
H         -2.03643        2.94666        1.12584
H          0.21429        2.56153        0.51423
