25
Coordinates from ORCA-job ./opt_b97-3c_parallel
N         -5.64976       -0.04158       -0.00638
C         -4.50706       -0.03447       -0.00594
C         -3.07901        0.01661       -0.00504
C         -2.28125       -1.15119       -0.00399
C         -0.93671       -0.66487       -0.00271
C          0.03533       -1.72456       -0.00121
C          1.40762       -1.73565        0.00024
C          2.36852       -0.67438        0.00097
C          3.73314       -1.08438        0.00245
C          4.53123        0.00323        0.00319
C          3.73654        1.06324        0.00249
C          2.41182        0.70132        0.00120
C          1.41355        1.72981        0.00092
C          0.03911        1.73431       -0.00134
C         -0.97855        0.71877       -0.00316
C         -2.29165        1.12199       -0.00542
H         -2.64839        2.14981       -0.00351
H         -0.37532        2.73815       -0.00156
H          1.85727        2.72137        0.00307
H          4.09829        2.08934        0.00251
H          5.61874        0.00870        0.00400
H          4.07949       -2.11345        0.00282
H          1.84346       -2.73044        0.00083
H         -0.41455       -2.71321       -0.00154
H         -2.62660       -2.18086       -0.00386
