31
Coordinates from ORCA-job ./opt_b97-3c_parallel
N          0.23416       -4.10258        0.97116
C          0.13618       -2.96546        0.93506
C         -0.03388       -1.54604        0.85464
C          1.08670       -0.91032        1.30789
C          1.71469       -0.25402        0.28758
C          1.44765        1.07236       -0.14887
C          2.27309        1.29100       -1.20572
C          2.99682        0.20016       -1.42826
C          2.67499       -0.78614       -0.53786
N          3.17212       -1.76791       -0.60164
H          3.37356       -2.68822       -0.99017
H          4.03728       -1.43966       -0.17386
H          3.75408        0.11731       -2.20696
H          2.35003        2.22112       -1.76383
C          0.59271        1.83048        0.59705
N          1.28855        2.80373        1.21822
H          2.20088        3.09244        0.86842
H          0.81471        3.62536        1.59161
C         -0.69418        1.49544        0.77717
C         -1.40095        2.00642        1.46796
N         -2.30595        2.48207        1.98187
C         -1.31980        0.48444        0.06924
N         -2.40716        0.61229       -0.77211
C         -2.81586       -0.66612       -1.10650
C         -2.07859       -1.66851       -0.53219
C         -1.14583       -0.94099        0.14923
H         -1.79361       -2.54721       -1.10843
N         -3.73133       -0.56542       -1.71683
H         -4.39839       -1.33529       -1.77677
H         -4.22019        0.25520       -2.07556
H          1.63370       -1.24597        2.18799
