28
Coordinates from ORCA-job ./opt_b97-3c_parallel
N         -4.88005       -0.31137        0.42263
C         -3.88297        0.21792        0.24276
C         -2.62163        0.86684        0.07087
C         -2.52883        2.29472        0.19109
C         -1.30106        2.89303        0.03798
C         -0.58877        1.74817       -0.16622
N          0.56336        1.82843       -0.72964
C          1.80156        1.50026       -0.77090
C          2.27608        0.22010       -0.34978
C          3.61680        0.10873       -0.14099
N          3.92263       -1.03245        0.46800
C          2.68039       -1.63256        0.63894
C          1.64194       -0.90422        0.10566
C          0.38014       -1.36245        0.06566
N          0.04430       -2.53816        0.64120
H          0.68320       -3.32995        0.59689
H         -0.89307       -2.91486        0.49575
C         -0.73876       -0.75152       -0.48219
C         -1.69444       -1.53605       -1.22497
N         -2.20848       -2.33432       -1.85943
C         -1.31299        0.53337       -0.13428
H          2.77341       -2.60538        1.14655
N          4.63655        0.53794       -0.16940
H          5.51894        0.32709        0.29792
H          4.75024        1.46893       -0.57027
H          2.01147        2.53001       -1.09723
H         -0.95760        3.65636        0.73180
H         -3.42836        2.87009        0.39268
