20
Coordinates from ORCA-job ./opt_b97-3c_parallel
C          3.79885       -0.04441        0.21581
C          3.03413        1.06142        0.00084
C          1.66773        0.67783       -0.13308
C          0.65114        1.69231       -0.33523
N         -0.69504        1.67899       -0.17435
C         -1.64852        0.73629       -0.01564
N         -2.94496        1.05252        0.30705
C         -3.66671       -0.12948        0.32729
N         -2.81384       -1.16966       -0.02108
C         -1.55484       -0.66005       -0.25049
N         -0.49614       -1.24929       -0.68097
C          0.65412       -1.64803       -0.26995
C          1.73463       -0.75224       -0.00378
C          3.02531       -1.12516        0.22189
H          3.37840       -2.14599        0.36456
H          0.93616       -2.71171       -0.21006
H         -4.74098       -0.10610        0.57378
H          0.95124        2.75038       -0.40093
H          3.38017        2.09096       -0.02569
H          4.87779       -0.04245        0.36060
