32
Coordinates from ORCA-job ./opt_b97-3c_parallel
N          5.29879        0.91660        1.25739
C          4.22983        0.69149        0.92153
C          2.89947        0.41531        0.46351
C          2.00902        1.44202        0.33367
C          0.89531        0.79293       -0.15096
C          1.12819       -0.54920       -0.29805
C          2.41132       -0.87138        0.07408
N          3.04402       -1.77932        0.10893
H          4.01272       -1.77828        0.42506
H          2.63281       -2.65879        0.41593
C          0.25809       -1.52458       -0.93025
N          0.55407       -2.52754       -1.29417
H          0.40600       -3.49192       -1.58913
H          1.53769       -2.32474       -1.47163
C         -1.13662       -1.56719       -0.90251
C         -2.04416       -0.66685       -0.22254
C         -2.08918        0.66792        0.11285
N         -3.24124        0.99756        0.72700
C         -4.01511       -0.15384        0.77905
C         -3.30019       -1.21683        0.14664
H         -3.63675       -2.24104        0.01312
N         -5.00515       -0.03343        1.25237
H         -5.68544       -0.75773        1.48169
H         -5.45674        0.85625        1.46248
C         -1.25867        1.68831       -0.29631
C         -0.05547        1.41093       -1.03582
N          0.19345        2.42241       -1.41434
H         -0.05842        3.39670       -1.57425
H          1.13777        2.30530       -1.78013
H         -1.62175        2.71441       -0.17466
H         -1.65533       -2.47626       -1.22554
H          1.92360        2.21233        1.09680
