27
Coordinates from ORCA-job ./opt_b97-3c_parallel
N         -4.86463       -0.02086       -0.28673
C         -3.54620       -0.17618       -0.09483
C         -2.63612        0.78709       -0.24421
C         -1.36357        0.33985        0.00109
N         -0.43611        1.23594       -0.10774
C          0.79394        1.63976       -0.15682
N          0.57106        2.70171       -0.34676
H         -0.27027        3.12686       -0.73532
H          0.84802        3.28532        0.44031
C          1.91254        0.75022       -0.00289
C          3.19652        1.18659       -0.12777
N          3.58814       -0.06681       -0.20172
C          2.93102       -1.27087       -0.07306
N          3.65699       -2.08714       -0.23048
H          3.15183       -2.97094       -0.29828
H          4.64300       -2.31334       -0.35794
C          1.79290       -0.58782        0.23662
C          0.78025       -1.45821        0.51484
N         -0.51375       -1.91860        0.63304
C         -1.49728       -0.99083        0.31284
C         -2.87832       -1.30149        0.26630
H         -3.29376       -2.28388        0.46857
H          0.55649       -2.47661        0.86798
H          3.51251        2.23827       -0.19772
H         -2.88067        1.80715       -0.53631
H         -5.46589       -0.83365       -0.41228
H         -5.21445        0.72445       -0.88655
