30
Coordinates from ORCA-job ./opt_b97-3c_parallel
N          0.15515       -4.29266       -0.53474
C          0.00360       -3.16520       -0.42716
C         -0.12901       -1.74217       -0.29802
C          1.05491       -0.91666       -0.16722
N          2.30678       -1.50713       -0.05501
C          3.12313       -0.45872        0.06710
N          4.09011       -0.98643        0.17436
H          4.84579       -0.42791        0.57295
H          4.49056       -1.90551       -0.01592
C          2.51135        0.76424        0.01831
C          3.11717        2.05844        0.12122
N          3.63354        3.07204        0.22257
C          1.10687        0.51042       -0.15733
N          0.37547        1.32248       -0.26667
C         -0.57830        1.82637       -0.08438
N         -0.30034        2.89529       -0.07529
H          0.27806        3.72321       -0.20846
H         -1.17610        3.07482       -0.56383
C         -1.83177        1.16056        0.07487
C         -3.05531        1.84916        0.30663
C         -4.16002        1.04419        0.37817
C         -3.59243       -0.19390        0.17197
N         -4.37790       -0.96878        0.23276
H         -5.36449       -0.75097        0.36636
H         -4.24750       -1.92208        0.56626
C         -2.16958       -0.21608       -0.01958
C         -1.48399       -1.40961       -0.22940
H         -2.16633       -2.25600       -0.30362
H         -5.08727        1.34614       -0.10968
H         -3.08596        2.93008        0.40026
