25
Coordinates from ORCA-job ./opt_b97-3c_parallel
N         -0.11268        4.11614       -0.00766
C          0.14632        3.00360       -0.00291
C          0.41473        1.59483        0.01495
C         -0.68658        0.67189        0.03549
N         -1.94423        0.99396        0.01206
C         -3.00067        0.24320       -0.00624
C         -2.28166       -0.92989        0.07223
C         -3.13436       -2.08428        0.09889
N         -4.13768       -2.43740       -0.32097
C         -0.87217       -0.68289        0.09532
N         -0.19010       -1.83053        0.18310
C          1.17376       -2.02901        0.19137
C          2.31041       -1.16532        0.05889
C          3.58127       -1.81403        0.03302
N          3.83886       -0.73545       -0.06451
C          3.95372        0.36970       -0.13626
C          2.53512        0.22955       -0.03959
C          1.77727        1.37947       -0.03380
H          2.39487        2.27660       -0.08683
H          4.81222        1.05256       -0.22749
H          3.97332       -2.84148        0.08275
H          1.26985       -3.12283        0.27007
N         -3.90296        0.88144       -0.06642
H         -4.40949        1.76660       -0.03579
H         -4.60425        0.16006       -0.24471
