30
Coordinates from ORCA-job ./opt_b97-3c_parallel
N         -2.31450       -3.87570       -0.25622
C         -2.19836       -2.74131       -0.18496
C         -2.00301       -1.32376       -0.10774
C         -3.04201       -0.40043        0.26988
C         -2.43081        0.90456        0.20318
C         -3.11262        2.12850        0.49806
N         -3.62547        3.12250        0.73812
C         -1.12267        0.78595       -0.19793
N         -0.15464        1.60010       -0.44070
C          1.04124        2.07576       -0.51285
C          2.27310        1.37930       -0.24753
C          3.45469        2.04075       -0.07953
N          4.26849        1.07572        0.34150
C          3.72773       -0.19643        0.43246
N          4.61858       -0.75146        0.77313
H          4.13484       -1.56284        1.15888
H          5.61466       -0.96926        0.79267
C          2.38356       -0.02577        0.00953
C          1.47540       -1.14654       -0.14897
N          1.71561       -2.20262        0.07864
H          2.20165       -2.74326       -0.63774
H          0.94878       -2.79539        0.40141
C          0.28501       -1.16808       -0.82342
C         -0.87045       -0.59708       -0.37626
H          0.27598       -1.55844       -1.84019
H          3.64601        3.11330       -0.23800
H          0.66009        3.09311       -0.68818
N         -4.09133       -0.62510        0.54408
H         -4.63796       -1.42376        0.22745
H         -4.74243        0.15038        0.65341
