29
Coordinates from ORCA-job ./opt_b97-3c_parallel
N         -5.63154       -0.57494        0.03192
C         -4.56623       -0.25718        0.29204
C         -3.22292        0.15100        0.57830
C         -3.52463        1.42381        0.96519
N         -2.39000        2.05053        0.74334
C         -1.28248        1.28337        0.46013
N         -0.61792        2.03751       -0.35049
C          0.65274        2.04410       -0.57243
C          1.51938        0.92576       -0.31640
C          2.87747        1.02200       -0.25011
C          3.21011       -0.33868        0.05975
C          4.58727       -0.72261        0.18732
N          5.72282       -0.66865        0.07101
C          2.19756       -1.25539        0.23709
N          2.33280       -2.52163        0.67468
H          3.25093       -2.88229        0.93592
H          1.63669       -2.95616        1.27751
C          1.13323       -0.43680       -0.07221
C          0.05576       -1.16316       -0.54587
C         -1.25661       -0.97524       -0.26361
C         -1.82746       -1.87386       -0.59641
N         -2.53056       -2.46992       -1.27364
C         -1.87700        0.07529        0.30982
H          0.36499       -2.06272       -1.09895
N          3.46426        1.94456       -0.42704
H          4.35466        1.44983       -0.49830
H          3.66296        2.90684       -0.69858
H          0.98687        3.07794       -0.75047
H         -4.31241        2.16359        1.18201
