29
Coordinates from ORCA-job ./opt_b97-3c_parallel
N         -4.27988       -1.67918        0.25697
C         -3.57903       -0.78160        0.16608
C         -2.67183        0.31359        0.02954
C         -2.92075        1.53462       -0.51619
C         -1.83779        2.29359       -0.41925
C         -0.82995        1.58191        0.15642
N          0.41553        2.03019        0.59048
C          1.50100        1.19089        0.84032
N          1.98218        2.13563        1.14969
H          2.26775        2.80666        1.86156
H          2.84459        1.77514        0.73541
C          1.82493        0.08612       -0.04153
C          3.04218       -0.06138       -0.66785
C          3.05931       -1.32169       -1.20980
C          1.95017       -1.99073       -0.90853
C          1.16160       -1.17365       -0.16939
C         -0.04150       -1.51351        0.53853
N         -0.74030       -0.64997        1.19726
C         -1.32628        0.28774        0.51785
N         -0.58061       -2.47095        0.63230
H         -1.52102       -2.84957        0.74243
H          0.05761       -3.17158        1.00650
H          1.71519       -3.00922       -1.21027
H          3.87322       -1.73492       -1.80439
N          3.91572        0.61010       -0.75048
H          4.00329        1.10024       -1.64165
H          4.72889       -0.00411       -0.68913
H         -1.76188        3.32192       -0.76606
H         -3.87094        1.84940       -0.94324
