31
Coordinates from ORCA-job ./opt_b97-3c_parallel
N          3.53417        1.74881        1.81884
C          2.62930        1.25423        1.32609
C          1.52208        0.60155        0.67775
C          1.84066       -0.47196       -0.24418
C          1.07109       -1.67185       -0.31025
N          0.17077       -2.04074        0.61917
C         -0.99515       -1.43257        0.86947
N         -1.03824       -2.32324        1.51853
H         -1.26795       -3.31657        1.54738
H         -1.79343       -1.83862        2.00237
C         -1.43601       -0.44889       -0.07271
C         -2.80722       -0.31232       -0.44961
C         -3.09497        0.88532       -1.06055
C         -1.93154        1.59463       -0.84572
N         -2.12415        2.64358       -1.13798
H         -2.94488        3.10686       -1.52785
H         -1.32382        3.22284       -1.38684
C         -0.84980        0.81852       -0.29578
C          0.31133        1.37186        0.38411
N          0.26423        2.45356        0.61394
H          0.97335        3.16422        0.79091
H         -0.62837        2.94353        0.55178
H         -4.08525        1.33930       -0.96020
N         -3.64148       -1.01316       -0.26849
H         -3.91452       -1.77796        0.34803
H         -4.50941       -0.63975       -0.65411
N          1.89605       -2.61238       -0.86695
C          3.06132       -1.95568       -1.21536
C          3.10327       -0.67958       -0.72237
H          3.66810        0.10507       -1.22122
H          3.92216       -2.45499       -1.68688
