29
Coordinates from ORCA-job ./opt_b97-3c_parallel
N         -5.61181       -0.44896       -0.30061
C         -4.49040       -0.31081       -0.12975
C         -3.07533       -0.17119        0.06169
C         -2.34738       -1.27627        0.61480
C         -0.98525       -0.88087        0.68849
C         -0.02221       -1.84504        1.15039
N          1.26051       -1.70055        1.16831
C          2.10918       -1.34656        0.25962
C          2.95583       -2.05541       -0.53277
C          3.60956       -1.19444       -1.29834
C          3.23787        0.05549       -1.05506
C          2.29564        0.03391       -0.06939
C          1.59258        1.02073        0.57352
C          2.19988        1.37075        1.44401
N          2.77393        2.21777        1.95822
C          0.31311        1.25841        0.11946
N          0.27867        2.26937       -0.34486
H         -0.57991        2.46673        0.16464
H          0.96045        2.96377       -0.04516
C         -0.86471        0.40526        0.21734
C         -2.17610        0.85977       -0.18575
N         -2.60901        1.78604       -0.60999
H         -3.49973        1.87404       -1.09599
H         -1.90181        2.21866       -1.20307
H          3.62775        0.94454       -1.54418
H          4.35986       -1.47638       -2.03242
H          3.08012       -3.13547       -0.53229
H         -0.16685       -2.88053        1.49352
H         -2.75640       -2.24098        0.89889
