27
Coordinates from ORCA-job ./opt_b97-3c_parallel
N         -5.92314       -0.82085       -1.05689
C         -4.83180       -0.65178       -0.76483
C         -3.47742       -0.44866       -0.35935
C         -2.65583       -1.52957        0.06885
C         -1.45988       -0.85941        0.39328
C         -0.31692       -1.56960        0.89571
N          0.80722       -0.99518        1.17787
C          1.74429       -0.51183        0.41954
C          2.92894       -1.12335        0.13908
C          3.59363       -2.34823        0.46813
N          3.65700       -3.43844        0.13053
C          3.65023       -0.25050       -0.73078
N          2.75164        0.39625       -0.62611
C          1.74425        0.73986       -0.30090
C          0.63706        1.67434       -0.27329
C          0.68656        2.89298       -1.01965
N          0.72476        3.88550       -1.58571
C         -0.53115        1.37015        0.51857
N         -0.78578        1.91624        1.44647
H         -0.68789        2.91660        1.28174
H         -1.63347        1.78658        1.99534
C         -1.61725        0.48804        0.16546
C         -2.86368        0.77941       -0.33724
H         -3.40139        1.67019       -0.02133
H          4.62273       -0.24839       -1.24560
H         -0.09516       -2.62386        1.11955
H         -2.89455       -2.58605        0.14582
