25
Coordinates from ORCA-job ./opt_b97-3c_parallel
N         -4.71124       -2.42704        0.49484
C         -4.11068       -1.47336        0.31487
C         -3.38562       -0.25822        0.11416
C         -3.99279        0.94723        0.30056
N         -3.01783        1.80517        0.04763
C         -1.82400        1.20282       -0.29698
N         -0.68035        1.74075       -0.58458
C          0.59596        1.78827       -0.37315
C          1.47454        0.65664       -0.18226
C          2.86935        0.79086        0.04165
C          3.23125       -0.59974        0.13654
C          4.57567       -1.03903        0.34940
N          5.66013       -1.36606        0.49639
C          2.25769       -1.56444        0.01670
C          1.18345       -0.74407       -0.17681
C         -0.16920       -1.19771       -0.33734
N         -1.24433       -0.98565       -0.47774
C         -2.01239       -0.21278       -0.26513
H         -0.24819       -2.29629       -0.31123
H          2.41227       -2.44626       -0.60223
N          3.41860        1.74727        0.10779
H          3.28970        2.63624        0.58778
H          4.39359        1.48349        0.25030
H          0.93565        2.83530       -0.36981
H         -4.98698        1.31297        0.60096
