25
Coordinates from ORCA-job ./opt_b97-3c_parallel
N          4.16781       -0.22475        1.11774
C          3.17784       -0.32045        0.64748
N          2.64296        0.93173        0.41310
C          1.40826        0.76513       -0.16650
N          0.53789        1.75103       -0.62488
C         -0.72149        1.42482       -1.09965
C         -1.68945        1.01202       -0.11897
C         -2.82725        1.66083        0.24243
C         -3.61731        0.77141        0.83939
C         -3.07698       -0.44314        0.87451
C         -1.88040       -0.35911        0.23546
C         -1.01369       -1.42940       -0.18899
N         -1.14393       -2.51288       -0.02137
H         -0.64967       -3.32098        0.35299
H         -2.13055       -2.64147        0.19457
C          0.12765       -1.25117       -0.91261
C          1.19286       -0.64333       -0.31775
N          2.29716       -1.28368        0.19306
H          0.11025       -1.36068       -1.99516
H         -3.52265       -1.33723        1.30363
H         -4.59483        1.01109        1.25170
H         -3.04438        2.71610        0.09192
H         -0.90031        2.48167       -1.34748
H          4.54672        0.64171        0.74075
H          4.31361       -0.94430        0.41342
