30
Coordinates from ORCA-job ./opt_b97-3c_parallel
N          5.28088        0.05664        0.27485
C          3.94879        0.00117        0.13212
C          3.15437        1.05931        0.03015
C          1.83600        0.69575       -0.07565
N          1.07002        1.77815       -0.24064
C         -0.30252        1.85166       -0.27684
C         -1.35129        0.90468       -0.05133
C         -2.65733        1.46440        0.08203
N         -3.49766        0.43539        0.25547
C         -2.87351       -0.75107        0.23145
N         -3.76522       -1.38829        0.38590
H         -4.72443       -1.71571        0.49382
H         -3.16072       -2.14324        0.71648
C         -1.46594       -0.51755        0.02209
C         -0.58295       -1.58154       -0.10302
N         -0.98781       -2.61786       -0.13654
H         -0.30950       -3.38085       -0.11556
H         -1.58912       -2.81912       -0.93507
C          0.79649       -1.70866       -0.14590
C          1.78471       -0.67513       -0.04887
C          3.14392       -1.09070        0.07190
H          3.46242       -2.12859        0.11943
H          1.25898       -2.69888       -0.18332
N         -3.29699        2.36214        0.11349
H         -4.22119        2.78876        0.15872
H         -2.62478        3.12667        0.17193
H         -0.21006        2.94384       -0.38047
H          3.51283        2.08774        0.04846
H          5.72646        0.90671        0.61058
H          5.79292       -0.73965        0.65376
