28
Coordinates from ORCA-job ./opt_b97-3c_parallel
N         -3.14756       -2.65412        1.50513
C         -2.31605       -2.01778        1.04658
C         -1.25228       -1.25554        0.45601
C         -0.04131       -2.02532        0.20850
C          1.15474       -1.57670       -0.45799
C          2.12985       -2.37996       -0.95696
C          3.22455       -1.64112       -1.07124
C          3.02324       -0.39832       -0.65225
C          1.73848       -0.30220       -0.20773
C          1.23581        0.59935        0.67493
N          1.53636        0.63356        1.98277
H          2.36388        0.14824        2.32346
H          1.45476        1.50898        2.49639
C          0.53561        1.34528       -0.21801
C          1.18610        2.57336       -0.57544
N          1.70656        3.54087       -0.89100
C         -0.83333        1.07237       -0.55165
C         -1.68582        1.97858       -1.10552
C         -2.91106        1.54790       -0.88411
C         -2.88683        0.38965       -0.24933
C         -1.57842        0.00833       -0.06578
H         -3.78017       -0.16002        0.03842
H         -3.81595        2.07247       -1.18204
H         -1.41526        2.90479       -1.60797
H          3.76358        0.39816       -0.63805
H          4.17138       -2.00830       -1.46017
H          2.02730       -3.42709       -1.23247
H         -0.11177       -3.09587        0.38141
