27
Coordinates from ORCA-job ./opt_b97-3c_parallel
N         -4.59734       -2.45153        0.17824
C         -3.90537       -1.54619        0.13665
C         -3.00487       -0.44096        0.07136
C         -3.46684        0.90481       -0.15056
N         -2.43714        1.77923       -0.17725
C         -1.31426        0.99891        0.01100
N         -0.12662        1.52261        0.06333
C          1.15909        1.70152       -0.00660
C          2.10981        0.61262       -0.02970
C          1.84843       -0.72880        0.04855
C          3.11634       -1.25663       -0.10471
N          4.11431       -0.28919       -0.22891
C          3.44556        0.86213       -0.17334
N          4.29826        1.56648       -0.29155
H          4.28054        2.54031       -0.60657
H          5.29274        1.39246       -0.11740
N          3.51753       -2.29015       -0.16732
H          2.97210       -3.13644       -0.35189
H          4.47897       -2.63125       -0.08317
C          0.57379       -1.19018        0.21274
N         -0.78259       -1.42790        0.32972
C         -1.64136       -0.39033        0.15249
H          0.35911       -2.23917        0.47432
H          1.04948        2.79689       -0.04999
N         -4.29050        1.61831       -0.32149
H         -5.03343        0.92218       -0.39114
H         -4.72438        2.51336       -0.54763
