33
Coordinates from ORCA-job ./opt_b97-3c_parallel
N         -6.27078       -1.09597       -1.29728
C         -5.20601       -0.88015       -0.94265
C         -3.89210       -0.58450       -0.46848
C         -3.36789        0.66998       -0.36360
C         -2.12299        0.48774        0.21490
C         -1.23650        1.51825        0.75625
N         -1.91538        2.36891        0.99492
H         -2.87964        2.40226        1.32091
H         -1.51570        3.29048        1.16742
C          0.17347        1.50368        0.80221
C          0.71715        2.71172        1.37502
N          1.13026        3.65885        1.86418
C          1.03978        0.57779        0.06642
C          2.25893        1.00460       -0.58151
C          2.72853        2.34062       -0.82557
N          3.10450        3.39409       -1.06005
C          2.89861       -0.18620       -1.09099
N          3.85450       -0.15613       -1.65224
H          4.42032        0.67786       -1.80386
H          4.49233       -0.95095       -1.66129
C          2.14365       -1.29142       -0.74331
C          2.53982       -2.63634       -1.05443
N          3.23820       -3.53983       -0.99008
C          1.00213       -0.79082       -0.03516
C          0.11168       -1.69596        0.62485
C         -0.03709       -3.10838        0.82959
N          0.46917       -3.97399        1.37932
C         -0.96418       -1.32123        1.35728
C         -1.92397       -0.84110        0.52224
C         -3.04332       -1.58256        0.06806
H         -3.25530       -2.63792        0.20863
H         -0.87897       -0.99299        2.39147
H         -3.51606        1.40358       -1.15326
