28
Coordinates from ORCA-job ./opt_b97-3c_parallel
N         -1.94439       -3.62263       -0.78485
C         -1.42430       -2.63302       -0.54928
C         -0.75095       -1.39170       -0.23746
C         -1.45795       -0.17433       -0.32787
N         -2.76844       -0.14284       -0.62473
C         -2.87224        0.65185        0.15298
N         -2.47764        1.38949        0.89206
C         -1.25049        1.04345        0.47786
C         -0.29515        2.05080        0.27741
C          0.92665        1.92173       -0.37593
N          1.50422        3.08249       -0.81595
H          0.93627        3.92084       -0.87448
H          2.33323        3.02597       -1.39751
C          1.66242        0.72975       -0.48120
C          2.67744        0.45805       -0.82271
N          3.21230       -0.17621       -0.09520
C          2.58330       -0.85245        0.50564
N          3.56570       -1.65597        1.01441
H          3.31722       -2.55888        1.40277
H          4.52199       -1.52779        0.70153
C          1.54236       -0.54837        0.29485
C          0.53919       -1.53199        0.26913
H          0.83915       -2.54482        0.54108
H          3.55253        1.09221       -0.91857
H         -0.59813        3.06286        0.54276
N         -4.22834        0.79132        0.23857
H         -4.83295        0.12918       -0.23453
H         -4.62842        1.37042        0.96796
