34
Coordinates from ORCA-job ./opt_b97-3c_parallel
N          4.41379        2.65396        0.83649
C          3.83275        1.68934        0.64493
C          3.07327        0.50835        0.36526
C          3.51051       -0.79952        0.73598
N          2.55638       -1.04593        0.21026
C          1.63139       -1.05796       -0.41460
C          1.89591        0.34415       -0.29630
N          1.20867        1.31396       -0.95157
C         -0.11978        1.14785       -1.33940
N          0.13400        2.12647       -1.78957
H         -0.80436        2.48578       -1.60530
H          0.58789        2.82052       -2.38348
C         -1.10429        0.58443       -0.43649
C         -2.23535        1.33916        0.02120
C         -3.13210        0.36693        0.60358
C         -4.40192        0.69574        1.18417
N         -5.41686        0.98322        1.62666
C         -2.61507       -0.97447        0.44829
N         -3.13122       -1.90251        0.75572
H         -2.92389       -2.89662        0.84227
H         -4.11750       -1.79565        0.99397
C         -1.35652       -0.80124       -0.21419
C         -0.52244       -1.89313       -0.64303
N         -0.58324       -2.99497       -0.60571
H         -0.25080       -3.95440       -0.51473
H         -1.59403       -3.04942       -0.72562
C          0.70918       -1.69664       -1.19029
H          0.90191       -1.87516       -2.24800
N         -2.36522        2.43431       -0.07945
H         -2.09833        3.02145        0.71142
H         -3.38602        2.44176       -0.09942
N          4.27925       -1.42435        1.21711
H          4.67050       -2.35285        1.36790
H          5.01956       -0.75910        1.43647
