33
Coordinates from ORCA-job ./opt_b97-3c_parallel
N         -0.36047       -4.02943       -0.63386
C         -0.17163       -2.91745       -0.44349
C          0.11623       -1.52368       -0.23141
C          1.49360       -1.46982       -0.08520
C          2.37541       -0.43411        0.13619
C          2.41720        0.94369        0.06035
C          3.71948        1.31655        0.30868
C          4.48602        0.26998        0.54787
C          3.71916       -0.84187        0.44820
N          4.35211       -1.73121        0.62821
H          3.63341       -2.12869        1.22959
H          5.25041       -1.97471        1.04031
H          5.55095        0.32040        0.78081
H          4.09342        2.33829        0.33579
C          1.51702        1.93752       -0.29526
N          1.79305        2.99842       -0.47276
H          1.32116        3.80702       -0.87348
H          2.65127        2.86650       -1.00444
C          0.06905        1.96947       -0.36484
C         -0.89322        0.92398       -0.10658
C         -2.28215        1.28076        0.01946
C         -2.78837        2.62333        0.08630
N         -3.17522        3.69532        0.17126
C         -3.18594        0.25572        0.15147
C         -2.30729       -0.79748        0.06994
C         -2.93831       -2.07508        0.24896
N         -3.47608       -3.07136        0.40652
C         -0.89867       -0.49823       -0.07274
N         -4.53295        0.32172        0.18492
H         -4.99686        1.16219        0.52460
H         -5.07735       -0.48608        0.48315
H         -0.39269        2.94224       -0.54709
H          2.01116       -2.43109       -0.09749
