35
Coordinates from ORCA-job ./opt_b97-3c_parallel
N          3.69498        3.59364       -0.66952
C          3.32191        2.53328       -0.88184
C          2.95129        1.20562       -0.48058
C          3.80815        0.14349       -0.26413
C          3.04640       -0.99357        0.20181
C          3.68488       -2.24986        0.48824
N          4.16501       -3.25756        0.72857
C          1.70995       -0.64204        0.26217
C          1.64575        0.73177       -0.13458
C          0.55439        1.64075        0.00882
C         -0.49295        1.38130        0.81724
C         -1.58150        0.76888        0.30295
C         -2.86359        1.37349        0.08325
C         -3.75928        0.27674       -0.19619
C         -5.16275        0.51657       -0.40653
N         -6.28492        0.69501       -0.53461
C         -3.05366       -0.91522       -0.14366
N         -3.63582       -1.84425       -0.31238
H         -2.98513       -2.34876       -0.91212
H         -4.57103       -1.99868       -0.68576
C         -1.68297       -0.58347        0.16385
C         -0.68514       -1.61952        0.42515
N         -0.98973       -2.68199        0.51037
H         -0.59543       -3.60784        0.66487
H         -1.97168       -2.73013        0.77842
C          0.71494       -1.57990        0.55377
H          1.17154       -2.53476        0.82258
N         -3.05687        2.45852        0.18648
H         -2.63629        3.13941        0.81509
H         -4.06697        2.54288        0.29044
H         -0.56364        1.88424        1.77816
H          0.68664        2.66392       -0.32942
N          4.90757        0.17262       -0.40892
H          5.44640       -0.65227       -0.15027
H          5.56864        0.94346       -0.48694
