29
Coordinates from ORCA-job ./opt_b97-3c_parallel
N         -0.94982       -4.33637       -0.90782
C         -0.76916       -3.22911       -0.69831
C         -0.48816       -1.84752       -0.43244
C         -1.52061       -0.95341        0.04342
N         -2.70180       -1.35922        0.39354
C         -3.48977       -0.37946        0.72918
C         -2.75361        0.73544        0.45100
C         -3.35325        2.01877        0.25095
N         -3.77916        3.06116        0.06325
C         -1.39461        0.45374        0.12679
N         -0.82096        1.23551       -0.86945
C          0.53981        1.47101       -0.91070
N          0.10962        2.28271       -1.53441
H         -0.48046        3.11660       -1.45442
H          0.49441        2.33495       -2.48060
C          1.45187        0.80133       -0.01876
C          2.68269        1.43176        0.34624
N          3.49694        0.44870        0.77088
C          2.95557       -0.77981        0.67768
N          3.77141       -1.45992        0.99367
H          3.70276       -2.47825        1.05284
H          4.72344       -1.24840        1.30082
C          1.62013       -0.60594        0.17234
C          0.88231       -1.70097       -0.24097
H          1.47194       -2.61657       -0.30388
N          3.29126        2.35069        0.37794
H          2.94090        3.25305        0.70078
H          4.30843        2.43510        0.37898
H         -4.52404       -0.58003        1.05035
