30
Coordinates from ORCA-job ./opt_b97-3c_parallel
N          6.65198        0.33834        0.43208
C          5.51912        0.33483        0.28154
C          4.10853        0.34827        0.05868
C          3.36559        1.44882       -0.26584
C          2.07505        0.97665       -0.36323
C          2.07514       -0.39890       -0.17879
C          3.33122       -0.83457        0.10668
H          3.70010       -1.83983        0.28812
C          1.05633       -1.39270       -0.34044
N         -0.10818       -1.17365       -0.82194
C         -1.07644       -0.45218       -0.38466
C         -2.37823       -0.97954       -0.06964
C         -2.67551       -2.38158       -0.12341
N         -2.91411       -3.49948       -0.13113
C         -3.36938       -0.08295        0.27904
N         -4.61187       -0.30560        0.75020
H         -5.32911        0.41257        0.66117
H         -5.05460       -1.21376        0.61760
C         -2.62815        1.06209        0.11548
C         -3.32393        2.30255        0.30214
N         -3.78334        3.17640       -0.27341
C         -1.25584        0.86761       -0.21122
C         -0.35580        1.97012       -0.42346
C          1.02745        1.97372       -0.55489
H          1.44599        2.96761       -0.68585
H         -0.81582        2.95295       -0.42772
N          0.93513       -2.48948       -0.29707
H          0.27236       -3.20781       -0.58403
H          1.56589       -2.34121       -1.08253
H          3.74812        2.19338       -0.96048
