29
Coordinates from ORCA-job ./opt_b97-3c_parallel
N         -6.09757        0.31649        0.78697
C         -4.96522        0.25072        0.65106
C         -3.55641        0.14570        0.43825
C         -2.77258        1.25443        0.02305
C         -1.50974        0.66381       -0.21062
C         -1.60326       -0.66630        0.08373
C         -0.66431       -1.66297       -0.11394
C          0.71976       -1.62079       -0.34922
C          1.05367       -2.99414       -0.64050
N          1.34496       -4.08451       -0.45355
C          1.75734       -0.67878       -0.21147
C          3.04647       -1.13641       -0.24348
C          3.55266        0.10713        0.01929
C          2.93996        1.23905        0.48354
C          1.72884        0.71469        0.14360
C          0.58565        1.55413       -0.06027
C          0.58501        2.96232        0.20949
N          0.57752        4.07769        0.45509
C         -0.45867        1.21735       -0.84890
H         -0.54059        1.57804       -1.87162
H          3.12814        1.61350        1.48737
N          4.64062        0.16877       -0.17208
H          5.20260       -0.67809       -0.24616
H          5.28969        0.95306       -0.20253
H          3.35731       -1.99032        0.35666
H         -1.12414       -2.65145       -0.05046
C         -2.86756       -1.03570        0.48544
H         -3.32784       -1.95526        0.12910
H         -3.09480        2.27083       -0.18044
