27
Coordinates from ORCA-job ./opt_b97-3c_parallel
N          4.63225        1.85581       -0.42509
C          3.93064        0.96570       -0.29612
C          3.01188       -0.11113       -0.12280
C          3.39287       -1.33998        0.51778
N          2.36233       -2.20831        0.54016
C          1.33776       -1.49715       -0.04274
N          0.15365       -2.13168       -0.24854
C         -1.13186       -1.57832       -0.42323
N         -1.48313       -2.62678       -0.52566
H         -2.06021       -2.75272       -1.36325
H         -1.46926       -3.55503       -0.09329
C         -1.64652       -0.25442       -0.07236
C         -3.01348       -0.05934        0.31424
N         -3.16866        1.26318        0.54450
C         -2.06111        2.00175        0.32942
N         -2.37937        3.04840        0.50811
H         -3.21150        3.36436        1.01299
H         -1.95405        3.91077        0.15936
C         -1.07028        1.05038       -0.07680
C          0.19321        1.42951       -0.61658
N          0.92767        0.55199       -1.20329
C          1.70435       -0.20946       -0.51721
H          0.71873        2.38551       -0.77384
N         -3.98994       -0.52825        0.51839
H         -4.87990       -0.15202        0.18919
H         -4.22455       -1.15291        1.29056
H          4.40247       -1.53422        0.91453
