21
Coordinates from ORCA-job ./opt_b97-3c_parallel
N          4.19578        0.09779       -0.64224
C          3.18799        0.35808       -0.27917
N          2.53785       -0.80760       -0.64353
C          1.24719       -0.63216       -0.22964
N          0.34337       -1.69517       -0.14253
C         -0.98913       -1.71322        0.25791
C         -1.92213       -0.63377        0.08957
C         -3.25512       -0.82715        0.30127
N         -3.61576        0.21773       -0.40649
C         -2.77259        1.13413       -0.99155
C         -1.64555        0.56831       -0.47821
C         -1.00741        1.12970        0.58267
N          0.25209        1.29824        0.98166
C          1.27624        0.66645        0.38554
N          2.45413        1.20529        0.38951
H         -1.52572        1.79456        1.29160
H         -3.67463        1.64796       -1.35827
H         -4.13516       -1.39755        0.63734
H         -1.48274       -2.66935        0.49331
H          4.98439        0.70981       -0.84833
H          4.53079       -0.85551       -0.78016
