27
Coordinates from ORCA-job ./opt_b97-3c_parallel
N          4.23490        2.01562       -0.35983
C          3.57153        1.09794       -0.20708
C          2.74542       -0.06391       -0.05660
C          3.31129       -1.30401       -0.07280
N          2.31179       -2.16012        0.07021
C          1.13086       -1.44815        0.15462
C          1.32695       -0.04879        0.10503
N          0.73265        0.87542        0.16543
C         -0.24996        1.33239        0.02298
N          0.07127        2.39220       -0.02755
H          0.92030        2.88365        0.24580
H         -0.60216        2.52916        0.72325
C         -1.61035        0.90516       -0.06739
C         -2.69633        1.70914       -0.23338
C         -3.79200        0.96390       -0.19653
C         -3.45629       -0.34703       -0.00422
N         -4.33145       -1.01952        0.03159
H         -4.00693       -1.97301        0.17634
H         -5.25360       -1.08166       -0.39545
C         -2.02779       -0.46064        0.08250
C         -1.42218       -1.70048        0.26707
C         -0.11288       -2.16248        0.29425
H          0.01724       -3.23645        0.38853
H         -2.13265       -2.51438        0.37033
H         -4.80263        1.35512       -0.31262
H         -2.67272        2.78594       -0.38329
H          4.33006       -1.70832       -0.16607
