26
Coordinates from ORCA-job ./opt_b97-3c_parallel
N          4.86994        0.13863       -0.01205
C          3.77155        0.25745        0.00075
N          3.05220       -0.92508       -0.00882
C          1.69974       -0.60652        0.00435
C          0.83435       -1.75679        0.00154
C         -0.53340       -1.89685       -0.00025
C         -1.58527       -0.92313       -0.01101
C         -2.90942       -1.43714       -0.03398
N         -3.86395       -0.43630       -0.04779
C         -3.15594        0.71315       -0.03040
N         -4.03563        1.38507       -0.04344
H         -3.92909        2.36105       -0.32022
H         -5.03491        1.25997        0.12546
C         -1.73939        0.42925       -0.00530
C         -0.88459        1.58201        0.02593
C          0.48500        1.71646        0.04254
C          1.56506        0.76161        0.02362
C          2.81674        1.31926        0.02495
H          3.08401        2.37234        0.03743
H          0.81292        2.75328        0.06420
H         -1.43343        2.52015        0.03599
H         -3.45442       -2.39374       -0.04792
H         -0.87931       -2.92799       -0.00459
H          1.38277       -2.69630       -0.00336
H          5.56053        0.88812        0.04583
H          5.40858       -0.72198       -0.11566
