27
Coordinates from ORCA-job ./opt_b97-3c_parallel
N          2.43326        3.98783        0.75841
C          1.92467        2.98692        0.54323
C          1.26929        1.73010        0.24926
C         -0.00751        1.85516       -0.29546
C         -1.06517        0.92606       -0.34481
C         -2.30003        1.50764       -0.65813
C         -3.15006        0.47282       -0.13335
C         -4.51086        0.90771       -0.05483
N         -5.64767        1.01331        0.00267
C         -2.59374       -0.75815        0.35579
N         -3.15321       -1.95733        0.70539
H         -4.14721       -2.08519        0.54187
H         -2.56938       -2.78650        0.70844
C         -1.22886       -0.48034        0.14833
C         -0.35145       -1.58738        0.17401
C          0.95772       -1.69718       -0.29303
C          1.38411       -3.05293       -0.57102
N          1.70812       -4.12969       -0.77600
C          1.88860       -0.65162       -0.42333
N          3.16513       -0.89027       -0.76812
C          3.47514       -0.20873        0.05852
N          3.24906        0.52761        0.86514
C          1.97364        0.52939        0.44193
H          4.54979       -0.31854        0.10459
H         -0.79941       -2.54906        0.41296
H         -2.41330        2.55431       -0.93451
H         -0.27131        2.87639       -0.57143
