30
Coordinates from ORCA-job ./opt_b97-3c_parallel
N         -5.31695       -0.80437        1.31184
C         -4.26458       -0.58157        0.92975
C         -2.93330       -0.34279        0.45554
C         -2.07746       -1.40210        0.32759
C         -0.96185       -0.77052       -0.16281
C         -0.04449       -1.41533       -1.04914
N          1.11912       -1.71774       -0.47304
C          1.93113       -0.82849        0.12401
N          3.11961       -1.21699        0.69858
C          3.92770       -0.09244        0.82333
N          3.27724        0.99150        0.24940
C          2.03071        0.56778       -0.15215
C          1.17892        1.50301       -0.85998
C         -0.21931        1.51581       -0.92273
N         -0.47250        2.52826       -1.29031
H         -0.18685        3.42706       -1.68020
H         -1.49330        2.54905       -1.28057
C         -1.14566        0.57627       -0.31149
C         -2.41590        0.93422        0.06276
N         -3.00620        1.86849        0.10330
H         -4.02206        1.79070        0.05228
H         -2.81016        2.69084        0.67282
H          1.74165        2.39342       -1.16058
N          4.94134        0.15163        1.18980
H          5.47125        1.01899        1.08868
H          5.56023       -0.48644        1.69289
N          0.07168       -2.48275       -1.30920
H         -0.87237       -2.40038       -1.68777
H          0.34968       -3.45224       -1.46458
H         -2.00566       -2.16487        1.10023
