24
Coordinates from ORCA-job ./opt_b97-3c_parallel
N          4.22645        2.11626       -0.06671
C          3.55795        1.19167       -0.01060
C          2.73363        0.02091        0.01629
C          3.33829       -1.18373       -0.18340
N          2.31548       -2.01782       -0.10986
C          1.10137       -1.39598        0.10160
N         -0.11530       -2.05612        0.23484
C         -1.42815       -1.57837        0.28893
C         -2.05991       -0.28875        0.07330
C         -3.42409       -0.17730       -0.07009
C         -3.70739        1.15321       -0.24707
C         -2.59876        1.88485       -0.22740
C         -1.55857        1.04169       -0.02720
C         -0.20022        1.38782        0.19956
N          0.75070        0.91384        0.44270
C          1.31828        0.00062        0.23074
H          0.00779        2.46801        0.15046
H         -2.54205        2.96574       -0.33291
H         -4.70583        1.56864       -0.37923
N         -4.24767       -0.91312       -0.08775
H         -5.15913       -0.45938       -0.03899
H         -4.38567       -1.76694       -0.62624
H         -2.01979       -2.50373        0.36303
H          4.36629       -1.54350       -0.34394
