24
Coordinates from ORCA-job ./opt_b97-3c_parallel
N         -1.30712       -4.22546       -0.00445
C         -0.92120       -3.14942       -0.00286
C         -0.40825       -1.79162       -0.00130
C          0.98745       -1.77181       -0.00132
C          1.93421       -0.74568       -0.00159
C          1.93389        0.74548        0.00071
C          3.28084        1.12936        0.00085
C          4.07986        0.00032       -0.00036
C          3.28149       -1.12876       -0.00132
H          3.66363       -2.14737       -0.00224
H          5.16734        0.00034       -0.00073
H          3.66326        2.14790        0.00156
C          0.98633        1.77126        0.00207
C         -0.40995        1.78793        0.00276
C         -0.92386        3.14434        0.00483
N         -1.31039        4.22055        0.00608
C         -1.36152        0.74043        0.00190
N         -2.67548        1.03541        0.00247
C         -3.05859       -0.00309        0.00080
N         -2.67481       -1.04100       -0.00143
C         -1.36123       -0.74561       -0.00004
H         -4.14056       -0.00139        0.00103
H          1.43781        2.76414        0.00275
H          1.44028       -2.76551       -0.00271
