31
Coordinates from ORCA-job ./opt_b97-3c_parallel
N         -2.01562       -3.35888       -1.48231
C         -1.35281       -2.61137       -0.92590
C         -0.49469       -1.51203       -0.58727
C          0.77520       -2.05443       -0.54670
C          1.95061       -1.46662        0.02966
C          2.48444       -0.19819        0.12586
C          2.07233        1.01718       -0.42483
N          2.90242        1.73109       -0.63650
H          2.88342        2.71024       -0.91715
H          3.82044        1.37037       -0.88890
C          0.81724        1.58717       -0.65853
C          0.59310        2.92074       -1.18276
N          0.61903        3.99798       -1.56497
C         -0.42596        1.05664       -0.12298
C         -1.58943        1.85918        0.16211
C         -2.76806        1.23532        0.48837
N         -3.79610        2.08766        0.66174
H         -4.69104        1.74088        1.00396
H         -3.64310        3.01470        1.05345
C         -2.33074       -0.04742        0.26279
C         -3.54426       -0.79943        0.40680
N         -4.22792       -1.54109        0.94529
C         -0.94507       -0.25823       -0.03858
H         -1.54480        2.94470        0.14143
C          3.77900       -0.38290        0.58593
C          4.07990       -1.66498        0.72005
C          2.99284       -2.37782        0.36306
H          2.91653       -3.45857        0.29123
H          5.02224       -2.07048        1.07981
H          4.47247        0.41470        0.84689
H          0.91150       -3.11310       -0.76957
