33
Coordinates from ORCA-job ./opt_b97-3c_parallel
N         -1.44648       -3.99808        0.12311
C         -1.08568       -2.92085        0.24886
C         -0.61019       -1.57881        0.43974
C         -1.46899       -0.86639        1.21015
C         -2.07928       -0.09256        0.27520
C         -1.75611        1.23890       -0.08250
C         -0.67958        1.89497        0.63972
N         -1.03245        2.93538        0.82310
H         -0.37365        3.59411        1.23590
H         -1.90648        3.03299        1.33712
C          0.59087        1.33113        0.86332
C          1.49957        2.26447        1.48576
N          2.08940        2.94412        2.19125
C          1.21472        0.17593        0.35593
C          2.55513        0.08104        0.05681
C          3.80055        0.79841        0.01684
N          4.21733        1.57270       -0.71595
C          2.68599       -1.23643       -0.48803
C          1.56999       -2.02330       -0.56060
C          0.68752       -1.13028       -0.00158
H          1.57802       -3.06364       -0.22457
N          3.46292       -1.88667       -0.94085
H          4.17525       -1.24381       -1.28423
H          3.91295       -2.79357       -0.83068
C         -2.84039        1.75774       -0.72803
C         -3.74821        0.80024       -0.85965
C         -3.32832       -0.35007       -0.24728
N         -4.06980       -1.16670       -0.21217
H         -3.69865       -1.95684       -0.73747
H         -5.04004       -1.05156       -0.49882
H         -4.70736        0.93760       -1.35771
H         -2.92976        2.77022       -1.11508
H         -2.02872       -1.31459        2.02974
