30
Coordinates from ORCA-job ./opt_b97-3c_parallel
N         -6.42816       -1.07015       -0.27458
C         -5.31425       -0.82809       -0.19342
C         -3.93100       -0.50102       -0.05744
C         -2.96540       -1.46593        0.33181
C         -1.78824       -0.69149        0.44826
C         -2.09647        0.59939        0.12049
C         -1.30599        1.73375        0.18649
C          0.08658        1.91581        0.20538
C          0.24209        3.34263        0.35198
N          0.35047        4.45947        0.13384
C          1.21899        1.11995       -0.04244
C          2.41147        1.74046       -0.33650
C          3.25884        0.71279       -0.66970
C          2.68340       -0.53491       -0.61755
C          3.32238       -1.79652       -0.84751
N          3.86909       -2.78409       -1.02630
C          1.34106       -0.30257       -0.18494
C          0.41339       -1.32318        0.21662
C          0.57431       -2.74329        0.12263
N          0.66336       -3.88105        0.05695
C         -0.63248       -1.07012        1.03022
H         -0.55680       -1.19396        2.10852
N          4.28008        1.07325       -0.89093
H          4.92826        0.28719       -0.90572
H          4.84362        1.92001       -0.94383
H          2.43043        2.66231       -0.92029
H         -1.92041        2.63650        0.16063
C         -3.42870        0.76495       -0.18142
H         -3.74526        1.40983       -0.99903
H         -3.11692       -2.51106        0.58350
