27
Coordinates from ORCA-job ./opt_b97-3c_parallel
N         -2.10580       -3.48848       -0.00636
C         -1.52217       -2.50746        0.00357
C         -0.82717       -1.24702        0.01334
C          0.53132       -1.53239        0.01135
C          1.65562       -0.73487        0.00178
C          1.99083        0.58793        0.00868
C          1.29939        1.84400        0.04118
C         -0.05124        2.10136        0.05568
C         -1.19430        1.32735        0.03628
C         -2.41683        2.06658        0.03599
C         -3.48117        1.11598        0.00581
N         -2.95087       -0.11576       -0.00299
C         -1.56159        0.00213        0.01468
N         -4.58619        1.11471       -0.01250
H         -5.21639        0.31736       -0.10937
H         -5.19112        1.93635        0.02637
H         -2.52745        3.14745        0.04936
H         -0.24573        3.17140        0.07912
H          1.93840        2.72337        0.05302
C          3.41463        0.64123       -0.01900
N          3.96864       -0.62090       -0.03759
C          2.90625       -1.45546       -0.02255
H          3.35838       -2.45980       -0.03727
N          4.36838        1.20360       -0.03452
H          4.39492        2.18541       -0.31035
H          5.34356        0.94143        0.11914
H          0.79033       -2.59352        0.00773
