27
Coordinates from ORCA-job ./opt_b97-3c_parallel
N         -4.34276       -2.38425       -0.89290
C         -3.66780       -1.47910       -0.71571
C         -2.83031       -0.35040       -0.45359
C         -3.28225        0.93576       -0.37560
N         -2.25916        1.68084        0.03552
C         -1.11479        0.91746        0.21873
C         -1.46475       -0.42626       -0.07965
C         -0.77417       -1.64873        0.18777
C          0.32321       -1.65187        0.97416
C          1.42535       -1.39422        0.23676
C          2.46819       -2.29644       -0.13226
C          3.62410       -1.72381       -0.60973
C          3.27975       -0.40491       -0.43067
N          4.12346        0.25798       -0.69487
H          3.96283        1.25494       -0.82364
H          5.11858        0.14015       -0.51382
C          1.94880       -0.16819        0.02401
C          1.47358        1.15810        0.33279
C          0.15210        1.57005        0.52830
C          0.20374        2.98005        0.79363
N          0.27865        4.10191        1.00291
H          2.25960        1.91175        0.33544
H          4.59308       -2.11482       -0.30008
H          2.36753       -3.35823        0.06853
H          0.37491       -2.27477        1.86363
H         -1.26931       -2.58280       -0.05797
H         -4.24953        1.43158       -0.54657
