28
Coordinates from ORCA-job ./opt_b97-3c_parallel
N         -1.52461       -3.55181        0.21157
C         -1.06469       -2.50774        0.14788
C         -0.52995       -1.16900        0.06752
C          0.90724       -1.17646        0.02033
C          1.91030       -0.15108       -0.00947
C          1.94910        1.27383        0.03483
C          3.25759        1.64062        0.04151
C          4.01346        0.55772       -0.01104
C          3.22924       -0.55999       -0.04219
N          3.83517       -1.48357       -0.07652
H          4.85044       -1.57157       -0.08047
H          3.46716       -2.37408       -0.40530
H          5.10399        0.57746       -0.01839
H          3.63271        2.66122        0.08073
C          0.94228        2.28639        0.04289
C         -0.48225        2.25368       -0.04580
C         -1.47557        1.21444       -0.07419
C         -2.76194        1.65790       -0.15772
C         -3.59869        0.58753       -0.08118
N         -2.79818       -0.53034        0.00469
C         -1.49992       -0.16036        0.00402
N         -4.65625        0.27069       -0.07407
H         -5.04769       -0.67020       -0.02712
H         -5.45289        0.90698       -0.09505
H         -3.06131        2.62720        0.23796
H         -0.89643        3.25785       -0.08509
H          1.33863        3.29801        0.06849
H          1.33280       -2.17773        0.02858
