31
Coordinates from ORCA-job ./opt_b97-3c_parallel
N         -2.61274       -4.19145       -0.55738
C         -2.43011       -3.06529       -0.49242
C         -2.21591       -1.65659       -0.37055
C         -3.23242       -0.75585       -0.49312
C         -2.64287        0.42373       -0.08193
C         -3.73851        1.34591       -0.16725
N         -4.00830        2.18390       -0.89698
C         -1.28854        0.33375        0.19623
C         -0.99589       -1.05046        0.03009
C          0.14788       -1.80333        0.44825
C          1.11484       -1.24101        1.20504
C          1.94353       -0.60323        0.34385
C          1.92665        0.75703       -0.04862
C          0.90824        1.67489        0.39695
C         -0.45999        1.40885        0.53282
C         -1.02800        2.69476        0.83059
N         -1.45653        3.32775        1.68080
H          1.27389        2.70072        0.44415
C          3.14395        1.09119       -0.55323
C          3.86560       -0.02605       -0.56274
C          3.18230       -1.07942       -0.01423
N          3.74356       -2.01921        0.13288
H          4.70274       -2.23510       -0.13189
H          3.23314       -2.90003        0.14273
H          4.89347       -0.07651       -0.92069
N          3.59003        2.27797       -0.99439
H          4.39597        2.32873       -1.61436
H          2.93419        3.01022       -1.25940
H          1.49995       -1.74305        2.08961
H          0.13557       -2.87907        0.30323
H         -3.88795       -0.80399       -1.36358
