27
Coordinates from ORCA-job ./opt_b97-3c_parallel
N          4.25188        1.43958       -0.61909
C          3.33036        1.31637        0.04892
C          2.29933        0.31461        0.03063
C          2.86442       -0.90899        0.33450
N          1.92306       -1.88886        0.17024
C          0.80352       -1.20560       -0.23918
N         -0.41972       -1.26298       -0.64936
C         -1.65659       -1.23692       -0.28548
N         -1.89660       -2.30889       -0.39084
H         -2.84107       -1.97888       -0.58888
H         -1.90997       -3.31368       -0.56455
C         -2.34319       -0.05601        0.15687
C         -3.71058       -0.09049        0.55699
C         -4.13485        1.18207        0.77670
C         -3.13525        2.02730        0.54889
C         -2.01295        1.34769        0.16595
C         -0.86031        2.03931       -0.38556
C          0.41727        1.49541       -0.78522
C          0.87448        0.22960       -0.26889
H          1.08658        2.19167       -1.28316
H         -0.97989        3.10849       -0.53693
H         -3.20924        3.10914        0.64332
H         -5.14270        1.46510        1.07584
H         -4.31856       -0.99016        0.57883
N          3.71226       -1.57110        0.61081
H          4.11721       -2.39884        1.05236
H          4.51007       -0.97549        0.37414
