23
Coordinates from ORCA-job ./opt_b97-3c_parallel
N         -1.97125       -3.39042       -0.00827
C         -1.43721       -2.37904        0.00058
C         -0.72697       -1.12370        0.00350
C          0.60853       -1.54467        0.00275
C          1.80191       -0.75239        0.00188
C          1.59052        0.64672        0.00353
C          3.02750        0.76080        0.00255
N          3.85362       -0.33761        0.00019
C          3.02376       -1.35040       -0.00028
H          3.31504       -2.41169       -0.00238
H          3.99164        1.29174        0.00239
C          1.30983        2.03907        0.00379
C         -0.06867        2.38813        0.00381
C         -1.14773        1.51794        0.00356
C         -2.39609        2.20188        0.00388
C         -3.40855        1.20683        0.00410
N         -2.83226       -0.00029        0.00440
C         -1.44873        0.15827        0.00418
H         -4.50513        1.29711        0.00407
H         -2.55787        3.27577        0.00347
H         -0.24732        3.45970        0.00376
H          2.03573        2.85144        0.00371
H          0.84091       -2.61173        0.00214
