30
Coordinates from ORCA-job ./opt_b97-3c_parallel
N          3.76339        1.25152       -1.42232
C          3.13566        0.37400       -1.04415
C          2.31805       -0.68691       -0.54149
C          2.38220       -2.00141       -0.88129
C          1.41992       -2.66327       -0.25218
C          0.69899       -1.80346        0.52104
N         -0.40849       -1.94030        1.17013
C         -1.52212       -1.67875        0.56987
N         -2.05055       -2.61474        0.81857
H         -1.66145       -3.55570        0.88295
H         -2.50165       -2.43388        1.71324
C         -1.84686       -0.48391       -0.17654
C         -3.11156       -0.31373       -0.65549
N         -3.39549        0.87839       -1.12765
C         -2.21913        1.54727       -0.88175
N         -2.54187        2.46000       -1.42276
H         -3.21586        2.99981       -1.96499
H         -1.71935        3.05551       -1.31499
C         -1.27385        0.77038       -0.26311
C         -0.28147        1.31814        0.47647
N         -0.35671        2.64613        0.72793
H         -1.17324        3.01353        1.21624
H          0.44815        3.10297        1.16038
C          0.78422        0.66751        0.97963
C          1.61023        0.92560        1.68068
N          2.05235        1.45007        2.59583
C          1.24697       -0.49660        0.40379
H         -3.94229       -1.03613       -0.66458
H          1.24291       -3.73312       -0.33727
H          3.11473       -2.44264       -1.55412
