31
Coordinates from ORCA-job ./opt_b97-3c_parallel
N         -3.30559       -1.76725       -1.33311
C         -2.45956       -1.21143       -0.79853
C         -1.50634       -0.86579       -0.34280
C         -1.73269        0.35521        0.23800
N         -2.72619        1.10202        0.85102
C         -3.22544        2.24355        1.26563
C         -2.09830        2.57665        0.65565
C         -1.31649        1.64667        0.12716
N         -0.15903        1.84575       -0.41145
C          0.96316        1.39943       -0.87512
N          1.17064        2.40270       -1.28015
H          1.22804        3.41457       -1.37269
H          1.87941        2.00253       -1.89154
C          1.56128        0.22760       -0.29615
C          2.89214        0.09909       -0.00292
C          2.99040       -1.08040        0.67969
C          1.80949       -1.68124        0.82097
N          1.64808       -2.82351        1.51030
H          2.37303       -3.14424        2.14931
H          0.74255       -3.05698        1.91306
C          0.86325       -0.93367        0.16928
C         -0.28868       -1.42535       -0.41323
N         -0.00658       -2.55972       -1.09225
H         -0.76042       -3.19187       -1.35563
H          0.79358       -3.12575       -0.81430
H          3.91635       -1.46688        1.10451
N          3.80923        0.70269       -0.12172
H          3.47001        1.64664       -0.29799
H          4.76391        0.78932        0.22148
H         -1.80300        3.62357        0.61216
H         -4.17583        2.32343        1.81450
