27
Coordinates from ORCA-job ./opt_b97-3c_parallel
N         -1.34421       -3.69792        0.20686
C         -0.93131       -2.63352        0.16841
C         -0.46801       -1.27623        0.12443
C         -1.42942       -0.20797        0.10197
N         -2.71685       -0.36100        0.10332
C         -3.49576        0.67148        0.05011
C         -2.64589        1.73870        0.08094
C         -1.40914        1.16212        0.10516
N         -0.58622        2.21568        0.16566
C          0.79275        2.22261        0.16134
C          1.78053        1.19558        0.03356
C          3.14442        1.59713       -0.05659
C          4.06073        0.58809       -0.17151
C          3.21899       -0.49846       -0.14389
N          3.83746       -1.40895       -0.24983
H          4.85185       -1.49978       -0.28336
H          3.45911       -2.23169       -0.71488
C          1.81615       -0.21907       -0.01702
C          0.91030       -1.25540        0.05159
H          1.39049       -2.23330        0.03430
H          4.98427        0.62458        0.40697
H          3.41520        2.64864       -0.03369
H          1.02247        3.29842        0.20308
H         -2.85688        2.62422       -0.52037
N         -4.55361        0.38691       -0.09628
H         -5.03543       -0.50698        0.00265
H         -5.27475        1.07023       -0.32776
