25
Coordinates from ORCA-job ./opt_b97-3c_parallel
N          1.39424        2.47879        1.24872
C          0.56283        1.64896        0.59913
C         -0.76534        1.72263        0.69575
C         -1.58741        0.80457        0.10894
N         -2.58358        0.94536       -0.76735
C         -3.15867       -0.24089       -0.96609
N         -2.56156       -1.22829       -0.21550
C         -1.56452       -0.57999        0.48514
N         -0.67216       -1.04073        1.31129
C          0.46501       -1.45919        0.84462
N          0.47494       -2.53863        1.07775
H          0.21306       -3.51541        1.20500
H          1.47346       -2.48084        1.27593
C          1.35085       -0.67966        0.01060
C          2.38691       -1.13562       -0.73915
C          2.87790       -0.08495       -1.38086
C          2.22238        1.03274       -1.08515
C          1.24204        0.74162       -0.18109
H          2.44579        2.01988       -1.48504
H          3.72127       -0.13074       -2.06709
H          2.74754       -2.16033       -0.80409
H         -4.00269       -0.25406       -1.67384
H         -1.21193        2.48773        1.32824
H          1.07771        3.40094        1.54723
H          2.36736        2.56630        0.95676
