27
Coordinates from ORCA-job ./opt_b97-3c_parallel
N         -0.23186       -4.20693       -0.01281
C         -0.34594       -3.06964        0.00245
C         -0.46147       -1.63625       -0.00885
C         -1.81340       -1.32345        0.00684
C         -2.52220       -0.13670        0.00695
C         -2.33943        1.23365       -0.05776
C         -1.15082        2.02120       -0.15796
N          0.13539        1.67719       -0.11966
C          0.85751        0.55731       -0.03515
C          2.26940        0.77438        0.01383
C          3.03652        1.98702        0.00011
N          3.75684        2.86229        0.15195
C          2.93063       -0.41166        0.08181
C          1.98571       -1.34154        0.06617
C          0.72122       -0.80869        0.00580
H          2.20580       -2.40583        0.11668
N          4.23980       -0.70788        0.16296
H          4.59073       -1.59940       -0.18164
H          4.93976        0.00742       -0.02876
H         -1.02022        3.11180       -0.22360
C         -3.57059        1.82910       -0.03291
C         -4.53322        0.92988        0.05416
C         -3.94504       -0.28457        0.07794
H         -4.45990       -1.23842        0.14081
H         -5.60114        1.12939        0.09679
H         -3.73660        2.90338       -0.07212
H         -2.48051       -2.18552        0.03406
