30
Coordinates from ORCA-job ./opt_b97-3c_parallel
N         -5.69404       -1.44593       -0.81736
C         -4.64378       -1.11136       -0.51327
C         -3.33545       -0.65683       -0.14953
C         -3.07160        0.61389        0.44707
N         -3.77774        1.42495        0.70566
H         -4.74185        1.23461        0.43705
H         -3.73129        2.40782        0.96738
C         -1.65513        0.51723        0.57524
C         -0.97652        1.68848        1.08278
N          0.28981        1.93944        1.10206
C          1.34284        1.73743        0.38534
C          2.15172        2.56110       -0.33484
C          3.11078        1.85051       -0.91380
C          2.96277        0.53549       -0.59347
C          3.76500       -0.57567       -0.99738
N          4.42878       -1.45419       -1.30057
C          1.82543        0.40466        0.26604
C          1.27737       -0.70532        0.84696
C          1.74295       -0.88157        1.84460
N          2.38069       -1.54582        2.52272
C          0.16837       -1.20147        0.20548
N          0.38030       -2.19530       -0.24671
H          1.21777       -2.71884        0.00409
H         -0.41059       -2.71624        0.12774
C         -1.20135       -0.71211        0.11132
C         -2.24799       -1.44083       -0.40333
H         -2.15235       -1.96858       -1.35026
H          3.89959        2.25771       -1.54170
H          2.03411        3.63923       -0.41540
H         -1.24546        2.69288        1.44224
