30
Coordinates from ORCA-job ./opt_b97-3c_parallel
N          3.87477        2.41803       -0.54829
C          3.19263        1.70530        0.03265
C          2.44778        0.48580        0.13696
C          3.12609       -0.67191        0.63022
N          2.13494       -1.14479        0.43072
C          1.07541       -1.32203        0.12510
C         -0.05186       -2.11238       -0.29975
C         -1.44201       -1.74414       -0.51078
C         -2.19079       -0.56024       -0.11121
C         -3.56601       -0.62222       -0.02304
C         -4.00642        0.58592        0.45117
C         -2.98803        1.40764        0.66676
C         -1.84891        0.77423        0.28905
C         -0.62284        1.43045       -0.04773
N         -0.35715        2.49595        0.08645
H          0.29671        3.26839        0.19761
H         -1.28962        2.90147        0.03795
C          0.31783        0.85708       -0.83258
C          1.19309        0.05931       -0.17778
H          0.32877        0.96782       -1.91486
H         -3.06290        2.42533        1.04179
H         -5.04725        0.84802        0.64197
N         -4.37784       -1.35265       -0.18984
H         -5.35727       -1.59561       -0.05402
H         -4.00055       -2.01093       -0.86835
H         -2.05971       -2.59054       -0.79338
H          0.15449       -3.17268       -0.40334
N          3.94806       -1.29233        1.02668
H          3.95417       -2.23491        0.64211
H          4.45598       -0.70233        0.37021
