31
Coordinates from ORCA-job ./opt_b97-3c_parallel
N         -5.31243       -1.59076       -0.67112
C         -4.25109       -1.25607       -0.41044
C         -2.91665       -0.82037       -0.12307
C         -1.85941       -1.63053       -0.42932
C         -0.78964       -0.88424        0.01029
C         -1.21587        0.35636        0.46891
C         -0.45600        1.51458        0.89569
N          0.80978        1.72126        0.75350
C          1.81549        1.43881       -0.01098
C          2.58856        2.18059       -0.84719
C          3.46236        1.36344       -1.41736
C          3.30780        0.11544       -0.99822
C          2.28470        0.09418       -0.09754
C          1.68164       -0.89072        0.63869
C          2.22292       -1.07225        1.59707
N          2.87441       -1.75135        2.24746
C          0.56502       -1.42577        0.04173
N          0.74335       -2.44203       -0.37601
H          1.59327       -2.92852       -0.09514
H         -0.02278       -2.88127        0.13121
H          3.89813       -0.74148       -1.31307
H          4.21262        1.67993       -2.13777
H          2.50501        3.25128       -1.01385
N         -0.49152        2.55198        1.27035
H         -0.95700        2.02735        2.00811
H         -0.02669        3.34212        1.71295
C         -2.58018        0.45330        0.43285
N         -3.30545        1.24589        0.70122
H         -2.89903        2.17944        0.66686
H         -4.20150        1.29331        0.21934
H         -1.82210       -2.15839       -1.38010
