30
Coordinates from ORCA-job ./opt_b97-3c_parallel
N          2.93825        3.06544       -0.34096
C          2.11628        2.27716       -0.26460
C          1.11070        1.23755       -0.14806
C          1.67455       -0.09142        0.03887
C          1.18970       -1.31809        0.31203
N         -0.08979       -1.52658        0.48909
C         -1.41444       -1.52698        0.60504
N         -1.59830       -2.55510        0.98126
H         -1.72166       -3.52144        0.66175
H         -1.85212       -2.58879        1.97432
C         -2.07733       -0.34674        0.10225
C         -3.44133       -0.31435       -0.07634
N         -3.89846        0.85495       -0.52954
C         -2.76831        1.65610       -0.64930
C         -1.54806        0.94974       -0.26489
C         -0.26778        1.57566       -0.28005
N         -0.45855        2.65669       -0.47401
H         -0.66965        3.34861        0.24878
H          0.03585        3.17975       -1.20095
H         -3.14531        2.62523       -1.01602
N         -4.50676       -0.63183       -0.10316
H         -4.95679       -1.07055       -0.91216
H         -5.29188       -0.27389        0.45023
C          2.19602       -2.17397        0.38421
C          3.42756       -1.63070        0.15151
N          3.05129       -0.30656       -0.03502
N          4.52015       -1.75450        0.01291
H          5.03337       -2.63949       -0.02440
H          5.23611       -1.04434       -0.16391
H          2.06030       -3.23160        0.60486
