25
Coordinates from ORCA-job ./opt_b97-3c_parallel
N         -4.57303       -0.94143        0.39054
C         -3.62555       -0.32262        0.23159
C         -2.45038        0.48227        0.06919
C         -2.68137        1.87743       -0.00141
C         -1.57749        2.64645       -0.15176
C         -0.56773        1.71663       -0.13418
C          0.74591        2.30271       -0.23055
C          2.02879        1.82918       -0.13674
C          2.54877        0.50832        0.01558
C          2.07257       -0.75606        0.02644
C          3.19654       -1.63267        0.12589
N          3.69997       -0.63854        0.14918
C          3.97111        0.44214        0.12115
H          4.90129        1.02864        0.15460
H          3.53577       -2.67852        0.17315
C          0.80519       -1.41681       -0.06194
C         -0.49096       -0.91301       -0.06832
C         -1.24538       -2.14218       -0.09637
N         -1.75535       -3.05848       -0.55251
C         -1.07304        0.42394       -0.03910
H          0.97592       -2.49736       -0.07263
H          2.79248        2.60145       -0.17321
H          0.70225        3.38334       -0.33972
H         -1.49077        3.58959        0.38382
H         -3.68758        2.28201        0.06062
