32
Coordinates from ORCA-job ./opt_b97-3c_parallel
N          3.86305        2.54920       -0.84331
C          3.23048        1.86774       -0.17690
C          2.59318        0.59658       -0.00173
C          3.37243       -0.44885        0.58675
N          2.43712       -1.02765        0.39709
C          1.40883       -1.33778        0.09226
C          0.37550       -2.24976       -0.32034
C         -1.04878       -2.02387       -0.49348
C         -1.88671       -0.89359       -0.11553
C         -3.23793       -1.08258        0.05616
C         -3.76871        0.11588        0.45176
C         -2.84642        1.06971        0.53919
N         -3.13693        2.32724        0.91285
H         -2.42699        2.90560        1.35783
H         -4.03461        2.53811        1.34419
C         -1.66925        0.50046        0.14962
C         -0.51905        1.22869       -0.30489
N         -0.27985        2.30939       -0.32805
H         -1.26838        2.55563       -0.29632
H          0.24062        3.18137       -0.40317
C          0.46661        0.67511       -1.05191
C          1.39741        0.02445       -0.30847
H          0.32779        0.45213       -2.10736
H         -4.82165        0.27808        0.68322
N         -3.97311       -1.90564       -0.00734
H         -3.57244       -2.75438       -0.40081
H         -4.92100       -2.13416        0.28593
H         -1.59244       -2.93653       -0.71440
H          0.68342       -3.28799       -0.39292
N          4.23180       -0.96766        1.04476
H          4.66748       -0.38793        0.32985
H          4.29165       -1.93068        0.72007
