27
Coordinates from ORCA-job ./opt_b97-3c_parallel
N         -1.65264       -3.45520        1.46867
C         -1.16428       -2.55989        0.95618
C         -0.60776       -1.41845        0.29830
C         -1.37944       -0.21758        0.04603
N         -2.68952       -0.09577        0.44471
C         -3.10241        1.16803        0.05627
N         -2.04545        1.81352       -0.57975
C         -0.94844        0.97753       -0.60882
N          0.22907        1.23151       -1.09565
C          1.42205        1.54016       -0.68581
N          1.47741        2.57136       -1.07258
H          1.42663        3.52486       -1.43165
H          2.42830        2.25333       -1.26069
C          2.19614        0.62622        0.10971
C          3.45415        0.90714        0.71025
N          3.17640       -0.15804        0.97303
C          2.93418       -1.24483        1.16945
C          1.86551       -0.70138        0.40756
C          0.76115       -1.44508       -0.15183
N          0.98796       -1.90562       -1.13017
H          1.99210       -1.92472       -1.31661
H          0.68419       -2.87892       -1.19202
H          3.54000       -1.98665        1.71365
H          4.27630        1.61157        0.90526
N         -4.15186        1.34134        0.35662
H         -4.56017        2.25652        0.55527
H         -4.90410        0.66948        0.51971
