29
Coordinates from ORCA-job ./opt_b97-3c_parallel
N         -4.47587       -1.79359       -0.30228
C         -3.72539       -0.93172       -0.27478
C         -2.77869        0.14320       -0.20021
C         -3.22565        1.44568        0.17330
N         -2.16100        1.70622       -0.01700
C         -1.06662        1.58286       -0.17626
C         -1.43842        0.29145       -0.42332
N         -0.86693       -0.77018       -0.88002
C         -0.06474       -1.53260       -0.22855
N         -0.59723       -2.49927       -0.24031
H          0.06429       -2.60089       -1.00716
H         -1.51465       -2.75165       -0.60305
C          1.23655       -1.10285        0.17340
C          2.22948       -2.02020        0.61155
C          3.47439       -1.48073        0.78553
C          3.24979       -0.18621        0.36545
N          4.25631        0.26838        0.43955
H          5.20698        0.38798        0.78382
H          3.68460        0.98239        0.88884
C          1.88910        0.15034        0.01507
C          1.47556        1.43551       -0.35736
N          2.22395        2.23938       -0.50842
H          3.02113        1.69968       -0.84381
H          2.34273        3.18611       -0.86319
C          0.24965        2.11041       -0.42837
H          0.20895        3.19550       -0.55437
H          4.03484       -1.71675        1.69235
H          2.00571       -3.07585        0.72799
H         -4.13529        1.99249        0.46269
