30
Coordinates from ORCA-job ./opt_b97-3c_parallel
N         -2.65022       -3.39515        1.19817
C         -2.02047       -2.47759        0.94253
C         -1.28076       -1.29985        0.59425
C         -1.86065       -0.27060       -0.24296
C         -1.52532        1.09867       -0.04690
N         -0.66693        1.59456        0.86119
C          0.55977        1.14334        1.16395
N          0.43343        2.01981        1.82304
H          1.41517        1.75699        1.91295
H          0.33438        2.90711        2.31613
C          1.28023        0.37017        0.18640
C          1.07275       -0.94003       -0.18379
C          2.18414       -1.46760       -0.78770
C          3.06995       -0.42860       -0.75764
C          4.40175       -0.60911       -1.25056
N          5.47588       -0.74604       -1.61243
C          2.61356        0.77061       -0.12778
N          3.15200        1.71062        0.09507
H          4.04506        1.25020        0.27232
H          3.37908        2.65703       -0.20880
H          2.51089       -2.48587       -0.58185
C          0.01713       -1.74689        0.37243
H          0.25735       -2.80735        0.46808
N         -2.59583        1.82697       -0.50141
C         -3.50030        0.91910       -1.03245
N         -4.43045        1.36380       -1.43642
H         -5.30356        0.84559       -1.55399
H         -4.63351        2.30520       -1.77795
C         -3.09024       -0.37730       -0.83401
H         -3.80376       -1.15184       -0.55632
