29
Coordinates from ORCA-job ./opt_b97-3c_parallel
N         -6.13632       -0.94613       -0.14813
C         -5.01802       -0.71979       -0.20580
C         -3.61900       -0.43827       -0.23534
C         -2.65393       -1.44517       -0.03455
C         -1.41256       -0.75177       -0.11599
C         -0.28744       -1.63185        0.03807
C          1.05678       -1.37047        0.18088
C          1.75585       -2.59844        0.44418
N          2.71114       -3.22182        0.52208
C          1.83312       -0.16257        0.20453
N          3.10291       -0.07649        0.44070
C          3.88691        0.95193        0.43812
C          2.90121        1.78941        0.00635
C          1.69578        1.16046       -0.11319
C          0.59198        1.93413       -0.61045
C         -0.77158        1.67955       -0.69421
N         -1.22166        2.63358       -1.03694
H         -2.10807        2.42611       -1.49573
H         -1.04934        3.62577       -1.19344
C         -1.67113        0.58447       -0.37695
C         -3.04124        0.77677       -0.42380
H         -3.49871        1.66662        0.00501
H          0.94977        2.93316       -0.88229
H          2.95866        2.85727        0.21216
N          4.92692        0.86956        0.79806
H          5.58266        1.64687        0.87535
H          5.44754        0.03314        1.06271
H         -0.59718       -2.67317        0.12989
H         -2.83242       -2.50157        0.14549
