32
Coordinates from ORCA-job ./opt_b97-3c_parallel
N          3.72213        3.17019       -0.73652
C          3.03526        2.43996       -0.18710
C          2.58848        1.07904       -0.13527
C          3.34434       -0.11235        0.12738
N          4.42803       -0.16241        0.34149
H          5.08812        0.52634       -0.01574
H          4.96940       -0.97123        0.64096
C          2.40462       -1.19548        0.05439
C          2.64721       -2.59393        0.24985
N          3.09692       -3.39869        0.92575
C          1.16245       -0.68784       -0.24397
N          0.01738       -1.27421       -0.42123
C         -1.25295       -1.44206       -0.24332
N         -1.14251       -2.53375       -0.34907
H         -1.78283       -2.21779       -1.07489
H         -0.58817       -3.28787       -0.74924
C         -2.20396       -0.39629        0.04384
C         -3.57471       -0.62969        0.37032
C         -4.27452        0.52289        0.65505
C         -3.32284        1.50949        0.52039
N         -3.67340        2.53733        0.72221
H         -2.98080        3.18168        1.09865
H         -4.58124        2.84985        1.06183
C         -2.04500        1.01297        0.12586
C         -0.90976        1.85636       -0.14393
N          0.23162        1.45930       -0.60047
C          1.27472        0.73430       -0.34769
H         -0.85889        2.95282       -0.07293
H         -5.29063        0.67102        0.28582
N         -4.19276       -1.54051        0.46390
H         -5.11471       -1.90132        0.70104
H         -3.57320       -2.34332        0.36994
