32
Coordinates from ORCA-job ./opt_b97-3c_parallel
N         -6.37206        0.12020       -1.36864
C         -5.28721        0.12622       -1.01285
C         -3.94314        0.12068       -0.52945
C         -3.29427       -1.08354       -0.13839
C         -2.02771       -0.60515        0.25698
C         -1.00528       -1.49889        0.73208
N          0.20812       -1.12192        0.98000
C          1.30235       -0.58992        0.52770
C          1.47803        0.80434        0.23466
C          0.48671        1.85941        0.30403
C         -0.85924        1.47626        0.64391
N         -1.10691        2.12980        1.49936
H         -2.10724        2.16228        1.68716
H         -0.76786        3.08797        1.56368
C         -1.99559        0.76284        0.11371
C         -3.16977        1.24835       -0.41283
H         -3.59442        2.18989       -0.07332
H          0.76667        2.87515        0.03543
C          2.82484        1.04561       -0.18550
C          3.32334        2.35030       -0.51074
N          3.72400        3.39707       -0.73434
C          3.44634       -0.18433       -0.19737
C          2.50688       -1.19200        0.23363
C          2.73691       -2.60321        0.34975
N          2.85848       -3.50886       -0.34003
N          4.49909       -0.34801       -0.49736
H          5.09803        0.41991       -0.79686
H          4.78576       -1.17121       -1.02516
N         -0.85733       -2.57133        0.93769
H         -0.19887       -3.14426        1.46204
H         -1.55916       -2.24879        1.60074
H         -3.67360       -2.10069       -0.14168
