28
Coordinates from ORCA-job ./opt_b97-3c_parallel
N          6.29538       -0.23759       -0.05123
C          5.15550       -0.19025       -0.11966
C          3.72647       -0.11853       -0.16392
C          2.95325       -1.31968       -0.08128
C          1.57191       -0.95800       -0.12251
C          1.50958        0.40807       -0.24129
C          0.46663        1.38791       -0.35279
N         -0.85626        1.24804       -0.26404
C         -1.70614        0.23683       -0.09069
C         -1.68460       -1.12550        0.02645
N         -2.97728       -1.60123        0.18937
C         -3.80764       -0.54659        0.18513
N         -4.80354       -1.00588        0.33464
H         -5.35152       -0.17060        0.55092
H         -5.43824       -1.79633        0.44548
C         -3.06325        0.66463       -0.00063
C         -3.77904        1.90511       -0.03524
N         -4.73301        2.23110        0.50549
C         -0.71797       -2.10669        0.02142
C          0.65646       -2.06767       -0.04291
H          1.15258       -3.03373        0.00471
H         -1.09837       -3.12164        0.10935
H          0.48789        2.48253       -0.46874
C          2.84624        0.94073       -0.27135
N          3.20552        1.98504       -0.34995
H          2.80836        2.90372       -0.16257
H          4.21849        2.10001       -0.33681
H          3.35568       -2.32431        0.01175
