31
Coordinates from ORCA-job ./opt_b97-3c_parallel
N         -2.48965       -3.62882       -1.07244
C         -1.92726       -2.67606       -0.78349
C         -1.18341       -1.50067       -0.42779
C          0.14737       -1.75538       -0.71933
C          1.22423       -1.06052       -0.06690
C          1.33069        0.32724        0.25373
C          0.66355        1.15027       -0.73797
N          1.35578        1.75492       -1.36536
H          1.22921        2.76555       -1.34840
H          2.35909        1.58303       -1.32610
C         -0.60551        1.62308       -0.42274
C         -1.05796        2.91572       -0.87365
N         -1.43091        3.94502       -1.20227
C         -1.44381        0.87871        0.48506
C         -2.54090        1.48693        1.16277
C         -3.36229        0.42453        1.64792
N         -2.85899       -0.78347        1.19803
C         -1.66964       -0.53402        0.53282
H         -4.31304        0.37034        2.19908
H         -2.75150        2.54763        1.25668
C          2.60755        0.50753        0.71691
C          3.25102       -0.65272        0.63604
C          2.45255       -1.63696        0.13044
N          2.90198       -2.63310       -0.02681
H          3.75384       -3.14220        0.20121
H          2.15793       -3.32368       -0.10482
H          4.28366       -0.79747        0.95217
N          3.15910        1.62858        1.21132
H          2.78066        2.53903        0.95785
H          4.17181        1.71371        1.27500
H          0.41666       -2.69415       -1.20159
