39
Coordinates from ORCA-job ./opt_b97-3c_parallel
N          4.16020       -0.15301       -3.23987
C          4.11904       -0.19392       -2.09515
C          3.08134       -0.13221       -1.10203
C          2.37448       -1.26463       -0.73192
N          2.45751       -2.31963       -1.06154
H          1.76952       -3.05887       -0.92907
H          2.69744       -2.31122       -2.05140
C          1.40802       -0.83585        0.23710
C          1.51797        0.52227        0.43807
C          0.78818        1.38002        1.36991
N          1.24023        2.30233        1.78464
H          0.77605        3.17063        2.04709
H          2.09684        2.24603        2.33258
C         -0.66907        1.28968        1.47823
C         -1.50022        2.28434        2.10612
N         -2.23737        2.89278        2.73208
C         -1.35648        0.57115        0.51314
C         -2.16367        1.03654       -0.50004
C         -2.52525        2.37177       -0.88005
N         -1.89887        3.19886       -1.35998
C         -2.53485       -0.10906       -1.29176
C         -1.99664       -1.24678       -0.72367
C         -2.04680       -2.61203       -1.16034
N         -2.04819       -3.69466       -1.52506
C         -1.29513       -0.85029        0.47174
C         -0.67004       -1.63801        1.40707
C         -1.49234       -2.09233        2.01540
N         -1.96014       -3.03554        2.46320
C          0.61631       -1.81863        0.95962
N          1.22794       -1.80876        1.89523
H          0.82426       -2.15256        2.76636
H          2.17918       -1.51780        2.11551
N         -3.13248       -0.12439       -2.22320
H         -3.47248       -0.88640       -2.80745
H         -3.36554        0.74365       -2.70348
C          2.62122        1.01589       -0.34518
N          3.10948        1.99425       -0.51428
H          2.75674        2.75197        0.06717
H          3.47829        2.41582       -1.36515
