29
Coordinates from ORCA-job ./opt_b97-3c_parallel
N         -5.69140       -0.02053        0.11623
C         -4.55131        0.02850        0.05056
C         -3.11396        0.08877        0.00882
C         -2.30796       -1.10687       -0.03428
N         -2.69010       -2.14808       -0.03991
H         -3.70598       -2.16289        0.03995
H         -2.36207       -3.06699        0.25118
C         -0.94580       -0.64327       -0.06133
C          0.02752       -1.69726       -0.12621
N          1.40273       -1.75520       -0.12454
C          2.27954       -0.75187       -0.06106
C          3.61394       -1.24306       -0.03404
C          4.47017       -0.10367        0.03852
N          3.71660        1.00717        0.04256
C          2.38600        0.61330       -0.01450
C          1.45750        1.70836       -0.02405
C          0.08374        1.76082       -0.03794
C         -0.92515        0.72798       -0.03372
C         -2.28606        1.19613        0.00326
N         -2.72906        2.21219        0.03006
H         -2.47251        3.13215       -0.32457
H         -3.73876        2.22908        0.16787
H         -0.29957        2.77652       -0.02820
H          1.94551        2.67952       -0.00258
N          5.55471        0.09835        0.09045
H          6.05179        0.98610        0.15935
H          6.26280       -0.62985        0.18386
H          3.92485       -2.28408       -0.05702
H         -0.02727       -2.79586       -0.16716
