33
Coordinates from ORCA-job ./opt_b97-3c_parallel
N         -5.36960        0.12647        1.33823
C         -4.29866        0.04896        0.94705
C         -2.95174       -0.00284        0.45293
C         -2.25137        1.19513        0.04140
N         -2.61204        2.24380        0.05071
H         -2.60125        2.67509        0.97552
H         -3.59422        2.06288       -0.16119
C         -0.94862        0.74081       -0.36402
C         -0.01212        1.72101       -0.89852
N          1.34819        1.84924       -0.60362
C          2.11374        0.81154       -0.22119
C          2.10126       -0.54026       -0.42362
N          1.23922       -1.15170       -1.16901
C          0.11602       -1.54482       -0.68089
N          0.31267       -2.62792       -0.77926
H         -0.55716       -2.85626       -1.25734
H          0.94047       -3.41721       -0.92381
C         -0.90242       -0.62701       -0.24681
C         -2.14783       -1.11428        0.26659
N         -2.48088       -2.14936        0.47338
H         -3.42404       -2.30217        0.83070
H         -2.05003       -3.07050        0.40207
C          3.24551       -1.04422        0.13774
C          4.01220       -0.08462        0.64983
N          5.18751       -0.28627        1.26349
H          5.59999        0.43584        1.85313
H          5.41426       -1.19319        1.66954
C          3.35216        1.07576        0.41832
H          3.71500        2.06679        0.67461
H          3.49366       -2.10391        0.16229
N          0.14947        2.78708       -1.14464
H          0.44606        3.42164       -1.88549
H         -0.84175        2.97682       -0.98764
