28
Coordinates from ORCA-job ./opt_b97-3c_parallel
N         -4.61384        0.13118        0.47703
C         -3.29774        0.03461        0.24102
C         -2.55605       -1.08390        0.04430
C         -1.19603       -0.71641       -0.15551
N         -0.30444       -1.67686       -0.63011
C          1.07992       -1.63636       -0.52241
N          1.10376       -2.66426       -0.93202
H          2.08731       -2.92050       -1.03695
H          0.58949       -3.50613       -1.20170
C          1.75394       -0.72043        0.35755
C          3.00023       -1.02648        0.97313
C          3.53144        0.12240        1.46897
C          2.73109        1.14218        1.17259
C          1.63312        0.69756        0.49062
C          1.02434        1.41120       -0.60022
N         -0.34217        1.62829       -0.55595
C         -1.18552        0.66516       -0.12827
C         -2.46946        1.06812        0.12748
H         -2.78129        2.10747        0.22684
N          1.09008        2.45224       -0.97702
H          0.61343        3.30500       -1.27996
H          2.08452        2.68164       -1.03161
H          2.91826        2.17586        1.45842
H          4.46796        0.19446        2.01988
H          3.47968       -2.00010        0.92979
H         -2.92763       -2.10003       -0.05390
H         -5.02273        0.97646        0.87597
H         -5.15365       -0.66848        0.80936
