34
Coordinates from ORCA-job ./opt_b97-3c_parallel
N         -4.78380       -1.08731       -1.82276
C         -4.06076       -0.33001       -1.36513
C         -3.18410        0.65128       -0.80646
C         -3.32599        2.00278       -0.90742
C         -2.32472        2.61812       -0.28495
C         -1.47352        1.70288        0.25787
N         -0.38481        1.91684        0.93311
C          0.88994        1.85450        0.70376
N          1.06884        2.93800        0.81251
H          0.55780        3.72053        1.21595
H          1.49230        2.43092        1.58765
C          1.56723        0.63558        0.33315
C          1.02818       -0.68641        0.36670
C          1.89725       -1.63044       -0.11481
C          3.01834       -0.85337       -0.30274
C          4.23635       -1.48567       -0.71420
N          5.19777       -1.99159       -1.07204
C          2.92126        0.56571       -0.08607
N          3.66476        1.37802       -0.19066
H          4.60956        1.42983       -0.56780
H          3.35685        2.33514       -0.02474
N          1.45917       -2.69432       -0.81242
H          0.63968       -3.21197       -0.49826
H          2.12442       -3.36113       -1.20029
C         -0.18525       -0.98187        0.92742
N          0.01104       -1.30020        2.21987
H         -0.69380       -1.83653        2.72276
H          0.92511       -1.62745        2.52766
C         -1.37741       -0.86343        0.27338
C         -1.90455       -2.15645       -0.04153
N         -2.30480       -3.20421       -0.26140
C         -1.98286        0.40558       -0.06689
H         -2.19456        3.69641       -0.23172
H         -4.13283        2.50575       -1.43548
