26
Coordinates from ORCA-job ./opt_b97-3c_parallel
N          0.32641       -4.17509       -0.29447
C         -0.00571       -3.08590       -0.21143
C         -0.36875       -1.70296       -0.09742
C          0.68124       -0.69845       -0.02465
N          1.99452       -1.17160       -0.07134
C          2.70711       -0.07107        0.11144
N          3.62800       -0.68700        0.04421
H          4.38790       -0.00495        0.04714
H          4.07267       -1.60017       -0.05925
C          1.90570        1.02304        0.26482
C          2.77124        2.14212        0.48640
N          3.50118        3.00519        0.65125
C          0.58798        0.66354        0.13801
N          0.15654        1.20556       -0.72216
C         -0.86153        1.56541       -0.51794
C         -2.16375        1.15772       -0.10797
C         -3.27278        1.93164        0.00578
C         -4.28353        1.11016        0.26309
C         -3.89295       -0.15827        0.33815
C         -2.54855       -0.20014        0.12694
C         -1.79524       -1.43995        0.04087
H         -2.41514       -2.33106        0.10695
H         -4.53955       -1.01145        0.53277
H         -5.31301        1.43645        0.39474
H         -3.33042        3.01207       -0.10646
H         -0.90819        2.65396       -0.68563
