27
Coordinates from ORCA-job ./opt_b97-3c_parallel
N         -3.12932       -1.33872       -0.84358
C         -2.46595       -0.19528       -0.61041
C         -2.99164        1.01828       -0.73606
C         -2.13390        1.98238       -0.43280
C         -0.96572        1.38992       -0.07858
C         -0.01113        1.95295        0.84055
C          1.37077        1.53440        0.89800
C          1.94596        0.64403       -0.08356
C          1.52996       -0.71966       -0.29188
N          0.64024       -1.32096        0.52068
C         -0.57487       -0.84343        0.82007
N         -0.70072       -1.80918        1.34212
H         -0.63271       -2.73820        1.75438
H         -1.69115       -1.65784        1.14189
C         -1.18141       -0.01798       -0.18629
C          2.61201       -1.36513       -0.80542
C          3.61291       -0.49978       -0.87931
C          3.25380        0.70245       -0.45318
H          3.89312        1.58216       -0.41530
H          4.60789       -0.74590       -1.24470
H          2.65476       -2.41254       -1.09616
H          2.03915        2.25169        1.36608
H         -0.23679        2.92105        1.28005
H         -2.33234        3.05240       -0.46229
H         -4.01597        1.20846       -1.05399
H         -2.74821       -2.01617       -1.50375
H         -4.13233       -1.29863       -1.02894
