25
Coordinates from ORCA-job ./opt_b97-3c_parallel
N          4.81503        1.54856        0.30884
C          3.97254        0.78279        0.22745
C          2.94361       -0.20146        0.10273
C          3.22145       -1.52260        0.29136
N          2.04926       -2.09862        0.07674
C          1.03990       -1.20964       -0.23724
N         -0.21213       -1.44828       -0.49767
C         -1.46306       -1.19061       -0.27642
N         -1.74935       -2.25239       -0.36482
H         -2.64692       -1.80939       -0.56090
H         -1.84439       -3.22567       -0.65227
C         -1.96463        0.13559       -0.00557
C         -1.10945        1.29431       -0.04058
C         -2.24460        2.16032        0.10784
N         -2.91930        1.32763        0.36276
C         -3.34705        0.31440        0.32378
N         -4.30707       -0.19978        0.48144
H         -4.29493       -1.00888        1.09931
H         -5.09179        0.37947        0.77666
H         -2.40879        3.23302       -0.07712
C          0.21281        1.77098       -0.35178
N          1.05962        1.06357       -0.41676
C          1.59196        0.10856       -0.22342
H          0.25886        2.75790       -0.83842
H          4.18408       -1.97997        0.56607
