33
Coordinates from ORCA-job ./opt_b97-3c_parallel
N         -5.70624        0.50518       -1.48649
C         -4.61913        0.41359       -1.15102
C         -3.26787        0.27351       -0.70681
C         -2.36477        1.29587       -0.58609
C         -1.27455        0.69114       -0.00085
C         -1.42498       -0.66666        0.08971
C         -2.75385       -0.98929       -0.31097
H         -3.26454       -1.94728       -0.28612
C         -0.51805       -1.59474        0.74453
N         -1.10738       -2.44071        1.16641
H         -0.53943       -3.25338        1.40204
H         -1.95104       -2.50222        1.73353
C          0.87988       -1.47570        0.66105
C          1.58319       -2.61109        1.23471
N          2.03125       -3.62048        1.52178
C          1.68707       -0.65642       -0.15198
C          2.81178       -1.20103       -0.71020
C          3.24520       -0.02744       -1.25924
C          2.65620        1.20401       -1.20629
C          1.62063        0.75944       -0.43691
C          0.73589        1.70502        0.21003
C          0.94659        3.12423        0.16400
N          1.14944        4.24910        0.17140
C         -0.36223        1.21371        0.98354
N         -0.82164        1.54715        1.93413
H         -0.44946        2.49528        1.96399
H         -1.83488        1.63630        1.87539
H          3.23407        2.08308       -0.92304
N          4.19861       -0.08211       -1.81624
H          4.76911       -0.89363       -2.04786
H          4.73004        0.73900       -2.10049
H          2.73833       -2.10191       -1.31963
H         -2.68247        2.29628       -0.29816
