35
Coordinates from ORCA-job ./opt_b97-3c_parallel
N          2.22163        3.49546        1.23378
C          1.57780        2.58289        0.98648
C          0.98228        1.70931        0.63854
C          1.75822        0.98418       -0.18144
N          2.88499        0.91707       -0.85449
C          3.51143        0.00552       -1.65161
N          2.50977       -0.85564       -1.25908
C          1.50881       -0.34337       -0.43075
C          1.25400       -1.25898        0.67809
C          2.31447       -2.08555        1.20140
N          3.18812       -2.71034        1.58945
C         -0.14196       -1.62314        0.88327
N         -0.41058       -2.60086        1.32816
H         -0.05289       -3.37000        1.89415
H         -1.42168       -2.72894        1.27932
C         -1.14854       -0.76910        0.29105
C         -1.11571        0.65596        0.24603
C         -2.19635        1.19420       -0.41063
N         -2.23441        2.40140       -1.00203
H         -1.90519        3.21829       -0.48893
H         -3.08743        2.68820       -1.48307
C         -2.98553        0.07539       -0.54164
C         -4.30481        0.22234       -1.08414
N         -5.34491        0.32655       -1.54584
C         -2.43665       -1.19511       -0.14919
N         -2.92578       -2.18502       -0.22250
H         -2.74572       -3.09472       -0.64488
H         -3.93859       -2.06563       -0.21760
C         -0.28322        1.45132        1.00337
N         -1.00144        2.12509        1.93010
H         -1.86915        1.74030        2.30153
H         -0.53883        2.65068        2.67113
N          4.40419       -0.19671       -2.26377
H          4.98040        0.49362       -2.74426
H          4.93763       -1.06572       -2.26500
