25
Coordinates from ORCA-job ./opt_b97-3c_parallel
N          2.93794        2.85700        1.01273
C          2.15299        2.05650        0.79533
C          1.20575        1.01984        0.51098
C         -0.06989        1.57581        0.50213
C         -1.18380        1.00546       -0.21956
C         -2.23429        1.70354       -0.72015
C         -3.28888        0.89724       -0.72831
C         -3.02187       -0.31835       -0.25866
N         -3.92933       -1.30054       -0.15358
H         -3.69076       -2.26144       -0.39207
H         -4.89150       -1.13966       -0.45105
C         -1.70614       -0.29114        0.08932
C         -1.09872       -1.06614        1.13058
N          0.17166       -1.60685        1.15065
C          0.86082       -1.40261        0.01537
N          1.70466       -2.37737       -0.44506
C          2.76879       -1.71586       -1.02845
C          2.78565       -0.36476       -0.80523
C          1.57623       -0.18695       -0.19474
H          3.68885        0.11655       -0.43425
H          3.66226       -2.13572       -1.51659
H         -0.72410       -1.72377        1.93010
H         -4.27090        1.20527       -1.08320
H         -2.21761        2.73739       -1.05919
H         -0.17290        2.63588        0.73378
