26
Coordinates from ORCA-job ./opt_b97-3c_parallel
N         -4.04472       -2.37533       -0.89489
C         -3.35132       -1.52802       -0.56618
C         -2.48387       -0.48076       -0.11220
C         -2.94893        0.50769        0.80413
N         -1.90506        0.80900        0.57328
C         -0.83122        1.00416        0.33322
C         -1.18802       -0.16696       -0.41786
N         -0.41747       -0.71218       -1.30201
C          0.14982       -1.67240       -0.65827
C          1.38850       -1.53788        0.04250
C          2.20609       -2.56504        0.38544
C          3.40997       -2.04502        0.58734
C          3.41959       -0.72644        0.42575
C          2.14946       -0.32449        0.11784
C          1.71189        1.05615       -0.08236
N          2.51120        1.82279       -0.11416
H          2.39178        2.81275        0.09549
H          3.51279        1.64631       -0.15255
C          0.44552        1.63803        0.06009
C         -0.04531        2.98448        0.18794
N         -0.00647        4.12779        0.19835
H          4.28975       -0.08448        0.54062
H          4.28794       -2.63064        0.85118
H          1.93722       -3.61712        0.44504
H         -0.27014       -2.67875       -0.81029
H         -3.80495        0.86184        1.39750
