33
Coordinates from ORCA-job ./opt_b97-3c_parallel
N         -4.24291       -2.67871        0.66662
C         -3.76038       -1.67972        0.39100
C         -3.15662       -0.41344        0.09444
C         -3.91732        0.79555        0.10515
N         -4.97484        1.06507        0.28675
H         -5.66216        1.81172        0.20679
H         -5.40624        0.31931        0.83007
C         -3.20404        1.91993       -0.21572
C         -1.94039        1.39698       -0.32485
C         -1.90610        0.03971       -0.22234
N         -1.02397       -0.87571       -0.36397
C          0.17224       -1.32579       -0.34341
N         -0.25099       -2.34433       -0.39092
H          0.45163       -2.20944       -1.11616
H         -1.00480       -2.88542       -0.80960
C          1.32888       -0.49244       -0.22092
C          2.61191       -1.11385       -0.07921
C          3.54455       -0.02489        0.02056
C          4.96220       -0.18257        0.20565
N          6.08442       -0.30239        0.38684
C          2.84889        1.23638       -0.09078
N          3.40924        2.19123       -0.03401
H          2.90975        2.81737        0.59483
H          4.38080        2.18001        0.27291
C          1.44371        0.94328       -0.25397
C          0.57267        2.02422       -0.43764
C         -0.79792        2.25534       -0.51406
H         -1.08357        3.29617       -0.63752
H          1.09128        2.97309       -0.52037
N          2.88665       -2.18573       -0.03896
H          2.20538       -2.92726        0.11248
H          3.79779       -2.55670        0.22367
H         -3.36570        2.87533        0.28388
