25
Coordinates from ORCA-job ./opt_b97-3c_parallel
N          4.97559       -0.03677       -0.60775
C          3.86593       -0.23482       -0.42938
C          2.48012       -0.51952       -0.22519
C          2.48945       -1.88145       -0.22765
N          1.30036       -2.14275        0.26705
C          0.41683       -1.14610        0.61525
N         -0.71960       -1.65554        0.97113
C         -1.97349       -1.53750        0.66105
C         -2.52549       -0.36508        0.03169
C         -3.92520       -0.32628       -0.26324
N         -3.49125        0.62381       -0.61083
C         -2.70403        1.03505       -1.26100
C         -1.71962        0.80302       -0.23986
C         -0.52998        1.43298        0.29266
N         -1.03843        1.84660        1.18927
H         -0.47452        2.69609        1.22436
H         -2.01066        2.15545        1.22934
C          0.76066        1.10353       -0.06529
C          1.24767        2.01914       -0.47382
N          2.10328        2.75542       -0.29206
C          1.20785       -0.15155        0.11434
H         -3.05342        1.88319       -1.87012
H         -4.92675       -0.78292       -0.27266
H         -2.62508       -2.39581        0.88542
H          3.08288       -2.77854       -0.46613
