30
Coordinates from ORCA-job ./opt_b97-3c_parallel
N          3.75541        2.76574       -0.01588
C          3.22992        1.75295        0.01540
C          2.51902        0.50628        0.04113
C          3.15367       -0.70865        0.43821
N          2.12197       -1.00061        0.13874
C          1.05070       -1.16105       -0.11453
C          1.23657        0.19622       -0.31276
N          0.48752        1.14973       -0.91641
C         -0.89006        1.07863       -0.96770
N         -0.75265        2.02969       -1.51539
H         -0.37331        2.87114       -1.95032
H         -1.74820        2.20883       -1.37706
C         -1.61663        0.55385        0.15519
C         -2.75006        1.27462        0.64678
N         -2.98810        0.22105        0.92666
C         -3.20951       -0.87772        0.90491
C         -1.93254       -0.81022        0.26388
C         -1.30540       -1.87445       -0.35547
N         -1.82051       -2.84246       -0.50014
H         -1.46862       -3.75863       -0.22339
H         -2.80694       -2.97270       -0.72166
C          0.03229       -1.99586       -0.70270
H          0.41668       -2.95348       -1.05554
H         -3.99372       -1.59441        1.19252
N         -3.20599        2.27673        0.60923
H         -4.16253        1.93083        0.68435
H         -3.08020        2.93211        1.38034
N          3.99884       -1.32143        0.78872
H          4.40908       -2.25234        0.72542
H          4.77630       -0.66539        0.85059
