30
Coordinates from ORCA-job ./opt_b97-3c_parallel
N          1.53827        3.84963       -0.23158
C          1.13862        2.78136       -0.15086
C          0.65270        1.43085       -0.08859
C          1.60628        0.33912       -0.04860
C          1.22468       -1.01487       -0.16205
N          0.37268       -1.68775       -0.34812
C         -0.71177       -1.75449       -0.22779
N         -0.83511       -2.84443       -0.39199
H         -0.21867       -3.51717       -0.84377
H         -1.52229       -2.56477       -1.08918
C         -1.81976       -0.90109        0.05812
C         -3.11987       -1.26462        0.18656
C         -3.80384       -0.15400        0.41497
C         -3.04504        0.94005        0.43803
N         -3.55729        2.15075        0.71779
H         -2.96469        2.86391        1.13763
H         -4.47666        2.22351        1.14839
C         -1.76073        0.52423        0.19321
C         -0.74144        1.46890        0.04462
H         -1.14561        2.47903        0.07816
H         -4.87875       -0.14494        0.58182
H         -3.52466       -2.27221        0.13063
C          2.29228       -1.86053       -0.05223
C          3.16559       -0.81561        0.12053
N          4.22563       -1.07411        0.30863
H          4.63858       -1.81532        0.87219
H          4.89864       -0.30995        0.29214
C          2.95201        0.53542        0.02709
H          3.37427        1.23421        0.74952
H          2.29253       -2.70108        0.64616
