33
Coordinates from ORCA-job ./opt_b97-3c_parallel
N          2.73199        4.19390        0.29589
C          2.50902        3.07432        0.24550
C          2.22735        1.67375        0.22720
C          3.02278        0.75324        0.97773
C          2.55982       -0.57937        0.74018
C          3.24873       -1.64545        1.40093
N          3.82469       -2.49078        1.91031
C          1.46476       -0.42654       -0.08904
C          1.28964        0.94513       -0.46050
N          0.46496        1.33441       -1.37820
C         -0.75505        1.69421       -1.16841
N         -0.67840        2.72873       -1.54419
H          0.00251        3.31082       -2.02831
H         -1.25224        2.28777       -2.26057
C         -1.72065        0.91175       -0.44503
C         -2.88828        1.46050       -0.01682
C         -3.24564        0.19272        0.35090
C         -4.64277        0.31803        0.64709
N         -5.74927        0.40868        0.91743
C         -2.63112       -1.02782        0.43834
N         -2.86221       -2.13144        1.16956
H         -2.08712       -2.65716        1.56899
H         -3.63565       -2.15217        1.83235
C         -1.53369       -0.49125       -0.17737
C         -0.66673       -1.26620       -1.06740
N         -1.14881       -2.16550       -1.50776
H         -0.69203       -2.94961       -1.97130
H         -2.02126       -2.52071       -1.11855
C          0.66041       -1.49508       -0.67159
C          1.42621       -2.70756       -0.83568
N          2.07157       -3.36465       -1.51333
H         -2.88565        2.28261        0.69637
H          3.86719        1.02267        1.60557
