31
Coordinates from ORCA-job ./opt_b97-3c_parallel
N         -2.39721       -3.59212       -0.92866
C         -2.04522       -2.80792       -0.17505
C         -1.98381       -1.38153       -0.05524
C         -3.04310       -0.48301        0.33748
C         -2.51929        0.79513        0.28029
C         -3.08618        2.08516        0.53843
N         -3.56968        3.10291        0.73336
C         -1.20942        0.76557       -0.12642
N         -0.24882        1.59274       -0.38038
C          0.93391        2.09152       -0.51542
C          2.19090        1.43247       -0.26953
C          3.38981        2.05107       -0.16193
C          4.25874        1.13909        0.25706
C          3.72402       -0.06983        0.43002
N          4.43477       -1.12913        0.84879
H          3.98173       -1.86703        1.38472
H          5.37101       -0.99727        1.22663
C          2.40909        0.05382        0.07398
C          1.45277       -1.02770       -0.06608
N          1.52819       -2.11272        0.13456
H          1.31096       -3.04417       -0.21468
H          2.54246       -2.01742        0.10563
C          0.28865       -1.00068       -0.78271
C         -0.91662       -0.55617       -0.31108
H          0.35003       -1.19864       -1.85213
H          5.30717        1.36329        0.44135
H          3.59921        3.09801       -0.36764
H          0.78021        3.16365       -0.70802
N         -4.08358       -0.73379        0.61565
H         -4.53850       -1.48437        0.09905
H         -4.72750        0.05516        0.62209
