31
Coordinates from ORCA-job ./opt_b97-3c_parallel
N         -1.24226       -4.10084        0.27951
C         -0.98056       -2.99029        0.33289
C         -0.59744       -1.60906        0.39933
C         -1.41903       -0.83896        1.15476
C         -2.10826       -0.20903        0.16782
C         -1.81288        1.03037       -0.28207
C         -2.93559        1.49296       -1.04995
N         -3.19328        0.43129       -0.80280
C         -3.38653       -0.57377       -0.35272
N         -4.23315       -1.27348       -0.39737
H         -4.61758       -1.76199        0.40869
H         -4.99203       -0.72259       -0.79599
H         -3.40765        2.31299       -1.61225
C         -0.68537        1.87830        0.10037
N         -1.01686        2.93598       -0.00771
H         -1.96626        3.21602        0.23700
H         -0.45092        3.78335        0.02674
C          0.60327        1.45700        0.48828
C          1.47065        2.53733        0.89469
N          2.18882        3.36380        1.21895
C          1.23211        0.17358        0.16449
C          0.68140       -1.13959       -0.05338
N          1.61248       -2.03459       -0.44106
C          2.77130       -1.28483       -0.45072
C          2.58614        0.08215       -0.05956
C          3.87112        0.71527       -0.13482
N          4.54665        0.93038       -1.03198
N          3.38140       -2.15119       -0.77949
H          4.17472       -1.63798       -1.16938
H          3.67722       -3.12657       -0.72889
H         -1.93186       -1.23168        2.03138
