28
Coordinates from ORCA-job ./opt_b97-3c_parallel
N         -5.43392       -0.33832        0.21840
C         -4.29613       -0.23603        0.25398
C         -2.86648       -0.11278        0.25737
C         -2.08674       -1.21695        0.14108
C         -0.79649       -0.72504        0.17704
C         -0.83134        0.65131        0.32390
C          0.14901        1.69329        0.50955
C          1.51733        1.74891        0.43630
C          2.54730        0.82342        0.07230
N          3.76168        1.31079       -0.03277
C          4.53428        0.33356       -0.34247
C          3.90968       -0.80599       -0.44232
C          2.61254       -0.54216       -0.16666
C          1.67579       -1.62342       -0.06076
C          0.29829       -1.67787        0.11281
N          0.05455       -2.76260        0.10454
H         -0.73410       -2.93642        0.72465
H          0.64518       -3.59121        0.14245
H          2.21314       -2.56959       -0.18935
H          4.34882       -1.76639       -0.70181
H          5.57724        0.66177       -0.46471
H          1.92054        2.74300        0.61230
H         -0.27132        2.67055        0.72483
C         -2.13119        1.10223        0.37720
N         -2.67203        2.06520        0.48315
H         -2.21580        2.71488       -0.15421
H         -3.67530        2.15727        0.33444
H         -2.36979       -2.01023       -0.54786
