32
Coordinates from ORCA-job ./opt_b97-3c_parallel
N         -1.96440       -4.12266       -0.95724
C         -1.96228       -3.00791       -0.70583
C         -1.90856       -1.60963       -0.37204
C         -2.89500       -0.64557       -0.33106
C         -2.31801        0.60182        0.12902
C         -3.30598        1.64879        0.12850
N         -3.33689        2.42076       -0.71544
C         -0.95838        0.42482        0.35407
C         -0.70354       -0.96546        0.06640
C          0.46929       -1.74478        0.37019
C          1.47969       -1.27504        1.13581
C          2.23343       -0.66160        0.19334
C          2.21136        0.69742       -0.16429
C          3.43409        0.94045       -0.89085
N          4.11711       -0.26798       -1.02342
C          3.38017       -1.17093       -0.35437
N          4.09496       -2.00239       -0.49643
H          3.73228       -2.95462       -0.46060
H          5.08436       -2.08718       -0.73056
H          3.86224        1.86891       -1.29949
C          1.28649        1.68760        0.36490
N          1.88727        2.62553        0.38344
H          1.24905        3.37261        0.10760
H          2.27746        2.91069        1.28218
C         -0.06189        1.45379        0.70524
C         -0.66274        2.64423        1.25847
N         -0.83845        2.98317        2.33624
H          1.92655       -1.88606        1.91754
H          0.45320       -2.80471        0.13555
N         -3.90964       -0.97876       -0.63720
H         -4.55580       -0.23365       -0.89417
H         -4.45317       -1.84105       -0.61821
