30
Coordinates from ORCA-job ./opt_b97-3c_parallel
N         -1.62507       -4.12003        0.38403
C         -1.07723       -3.12311        0.28155
C         -0.42533       -1.84521        0.15507
C          1.01249       -1.96333        0.16541
C          2.05610       -0.98534        0.14388
C          3.37450       -1.53321        0.31778
N          4.29935       -0.55376        0.27623
C          3.56479        0.59402        0.06090
N          4.50514        1.17890        0.06461
H          5.51346        1.29271       -0.04923
H          4.14186        2.10660        0.28738
C          2.14726        0.35845       -0.03807
C          1.27249        1.39548       -0.30507
N          1.71347        2.39762       -0.49867
H          1.96459        2.59511       -1.46883
H          1.35582        3.27707       -0.12127
C         -0.10332        1.56499       -0.38766
C         -1.20213        0.64733       -0.14926
C         -1.33712       -0.78007        0.09116
N         -2.67168       -0.99946        0.22172
C         -3.37843        0.16989        0.08566
C         -2.45679        1.22056       -0.16636
C         -2.98779        2.53749       -0.34633
N         -3.44142        3.57685       -0.47606
N         -4.41964       -0.17936        0.22665
H         -5.09769        0.58104        0.14785
H         -4.96625       -1.00577        0.47512
H         -0.46394        2.57311       -0.61606
H          3.97491       -2.44157        0.48107
H          1.37741       -2.98384        0.27178
