30
Coordinates from ORCA-job ./opt_b97-3c_parallel
N         -4.78067        0.30757       -0.32318
C         -3.46721        0.14488       -0.11087
C         -2.58402        1.13524        0.00703
C         -1.31753        0.66712        0.22908
C         -1.40036       -0.69403        0.19686
C         -0.43992       -1.73235        0.46775
C          0.95604       -1.63991        0.37162
N          1.27924       -2.68026        0.58124
H          0.96667       -3.64914        0.59195
H          2.24216       -2.67532        0.91074
C          1.88506       -0.68666       -0.07458
C          3.16637       -1.03299       -0.41872
C          3.78122        0.04385       -0.89251
C          2.99732        1.11189       -0.87525
C          1.80562        0.72444       -0.34750
C          0.78193        1.61452        0.11208
N          0.75321        2.71845        0.04705
H          1.69920        2.66569        0.41970
H          0.34991        3.58873        0.38783
C         -0.26406        1.22202        0.87233
H         -0.24461        1.29614        1.95781
H          3.26399        2.11193       -1.20844
H          4.80605        0.04814       -1.25550
H          3.61250       -2.02277       -0.35096
H         -0.93445       -2.69138        0.64864
C         -2.77187       -1.01331        0.02041
H         -3.17147       -2.02327        0.02573
H         -2.83474        2.19093       -0.06062
H         -5.34914       -0.47819       -0.63481
H         -5.12523        1.14873       -0.78032
