24
Coordinates from ORCA-job ./opt_b97-3c_parallel
N         -6.05117       -0.46013       -0.45264
C         -4.93431       -0.31932       -0.25539
C         -3.53053       -0.16493       -0.04568
C         -2.66569       -1.29094        0.06009
C         -1.40803       -0.67272        0.21394
C         -0.21977       -1.47511        0.34871
N          0.98078       -1.02034        0.51013
C          1.88709       -0.13130        0.25134
C          1.56450        1.26600        0.19516
N          0.61890        1.82720        0.33770
C         -0.45514        1.58034        0.26459
C         -1.58163        0.69429        0.19000
C         -2.90140        1.05060        0.05901
H         -3.19611        1.89123       -0.56492
H         -0.73911        2.64308        0.22742
C          2.70031        1.94759       -0.10742
C          3.68975        1.07882       -0.23681
C          3.23441       -0.18918       -0.02379
C          4.09088       -1.33005       -0.10286
N          4.65122       -2.29314       -0.35773
H          4.71646        1.33920       -0.48330
H          2.78846        3.02550       -0.23061
H         -0.12979       -2.57175        0.35620
H         -2.90802       -2.34722        0.01200
