34
Coordinates from ORCA-job ./opt_b97-3c_parallel
N         -3.44998       -2.47567       -0.35483
C         -3.68497       -1.54010        0.25933
C         -2.86343       -0.37742        0.08224
C         -3.33644        0.82677       -0.39068
C         -2.39045        1.81964       -0.46775
C         -1.24127        1.19531       -0.06721
C         -0.11063        1.99408        0.37872
C          1.23488        1.64965        0.49359
N          1.82824        2.52711        0.82266
H          1.56914        3.39751        0.35398
H          1.65737        2.68865        1.81712
C          1.83808        0.44227       -0.02340
C          1.24125       -0.69301       -0.47373
C          2.30722       -1.32394       -1.09055
N          3.53372       -0.69718       -0.89910
C          3.18953        0.40202       -0.23667
N          4.18285        0.88960       -0.18113
H          5.12125        1.19450       -0.44481
H          3.74023        1.70493        0.25164
N          2.60070       -2.26991       -1.58899
H          3.20186       -2.84614       -2.18060
H          2.02332       -2.92922       -1.06317
C          0.68803       -1.27939        0.63239
N          1.06560       -2.13680        1.22836
H          1.13813       -1.94647        2.22875
H          0.44008       -2.93980        1.14584
C         -0.70792       -1.14026        0.92783
C         -1.46523       -0.18224        0.28432
H         -1.20391       -1.92876        1.49716
H         -0.37218        3.04755        0.50298
H         -2.60652        2.83875       -0.14072
N         -4.30578        1.23666       -0.73184
H         -5.00384        0.55792       -1.03612
H         -4.80270        2.11169       -0.57688
