29
Coordinates from ORCA-job ./opt_b97-3c_parallel
N         -4.94218       -1.82443        0.02064
C         -4.06347       -1.09577        0.10596
C         -2.93745       -0.22377        0.22253
C         -3.07630        1.05174        0.82454
C         -1.94647        1.80797        0.81399
C         -1.02201        0.96207        0.24345
C         -1.61443       -0.22890       -0.13779
C         -1.16849       -1.25038       -0.95422
C          0.08563       -1.78649       -1.14188
C          1.12094       -1.65451       -0.15694
C          1.60066       -0.38129        0.26339
C          1.37557        0.88473       -0.41582
N          2.34020        1.39974       -0.64635
H          2.69817        1.40695       -1.60228
H          2.19909        2.38048       -0.39755
C          0.12470        1.50560       -0.45107
C          0.11407        2.90912       -0.78938
N          0.14364        4.02470       -1.03669
C          2.88813       -0.71886        0.79838
N          2.98986       -2.05274        0.70438
C          1.96768       -2.68236        0.14009
H          1.94987       -3.77114       -0.02325
N          3.91840       -0.58867        1.17688
H          3.82008        0.38552        0.88760
H          4.88993       -0.71119        1.45999
H          0.10081       -2.70333       -1.72449
H         -1.94838       -1.84216       -1.42614
H         -1.69328        2.45769        1.64900
H         -4.03608        1.39464        1.20016
