28
Coordinates from ORCA-job ./opt_b97-3c_parallel
N         -4.84553       -0.68021        1.07852
C         -3.83369       -0.22145        0.81451
C         -2.56007        0.32190        0.45885
C         -2.79333        1.63452        0.74498
N         -1.70614        2.24549        0.32850
C         -0.66122        1.40488        0.01842
N          0.02519        1.92651       -0.94957
C          1.31443        1.97304       -1.01889
C          2.17247        0.96450       -0.46801
C          3.43417        1.15206       -0.02222
C          3.72786        0.08001        0.69506
C          2.74249       -0.81591        0.72579
N          2.82109       -1.95460        1.43259
H          3.58832       -2.10912        2.08628
H          1.98810       -2.40875        1.80207
C          1.72177       -0.33831       -0.06373
C          0.68537       -1.08488       -0.60493
N          1.30723       -2.10526       -1.24587
H          0.79146       -2.95318       -1.47922
H          2.24591       -2.38680       -0.96245
C         -0.63760       -0.93272       -0.34825
C         -1.28514       -1.81060       -0.59672
N         -2.02539       -2.30849       -1.31267
C         -1.23300        0.17829        0.13651
H          4.67701       -0.04799        1.21285
H          4.07332        2.01520       -0.19634
H          1.73178        2.97348       -1.21171
H         -3.56411        2.38958        0.96942
