33
Coordinates from ORCA-job ./opt_b97-3c_parallel
N          3.82892        2.62600        0.61281
C          3.26407        1.65162        0.41695
C          2.54032        0.44737        0.13673
C          2.93949       -0.71906       -0.47421
C          1.98968       -1.70953       -0.47421
C          0.90021       -1.07239        0.05656
C          1.18585        0.23690        0.52846
N          0.46619        0.99961        1.28819
C         -0.20903        1.81537        0.55345
N          0.15985        2.84755        0.69817
H         -0.59289        2.84956        1.38398
H          0.99960        3.16628        1.17784
C         -1.33518        1.36993       -0.20804
C         -2.22587        2.25494       -0.87689
C         -3.39181        1.67851       -1.30517
C         -3.24140        0.38945       -0.83494
N         -4.18281       -0.10751       -1.13812
H         -5.01199       -0.06437       -1.72773
H         -3.53111       -0.74707       -1.58921
C         -1.97812        0.10588       -0.19626
C         -1.63133       -1.17301        0.43076
N         -2.50223       -1.84162        0.58837
H         -2.60196       -2.84526        0.72802
H         -3.44081       -1.46033        0.47774
C         -0.28459       -1.76464        0.52346
C         -0.14055       -3.17680        0.77466
N          0.00587       -4.29252        0.97757
H         -4.32591        2.23607       -1.21113
H         -2.02600        3.32089       -0.92577
H          1.87008       -2.38797       -1.31908
N          3.89900       -1.04477       -0.91441
H          4.60459       -0.34261       -1.13100
H          4.39566       -1.90902       -0.70528
