28
Coordinates from ORCA-job ./opt_b97-3c_parallel
N         -4.25228       -1.60929       -0.94724
C         -3.35416       -1.56255       -0.24143
C         -2.74988       -0.28581       -0.01216
C         -3.25021        0.98676        0.03413
N         -2.19087        1.81453        0.30493
C         -1.06686        1.00874        0.39522
C         -1.40102       -0.30671        0.19883
N         -0.30802       -0.99436        0.27007
C          0.88641       -1.48200        0.38087
N          0.51960       -2.51079        0.52223
H         -0.22380       -3.16464        0.27802
H          1.14692       -3.02130        1.14315
C          2.12447       -0.77179        0.16328
C          3.32634       -1.40082       -0.00457
N          4.12063       -0.39117       -0.35646
C          3.56034        0.87605       -0.40696
N          4.42915        1.49980       -0.68859
H          5.39642        1.19236       -0.79773
H          4.45337        2.51284       -0.80613
C          2.20963        0.64300       -0.03667
C          1.26146        1.72129        0.15050
C          0.07473        1.62794        0.82110
H          0.04162        2.08558        1.80859
H          1.63043        2.71266       -0.09671
H          3.61418       -2.46091        0.07481
N         -4.20189        1.54301       -0.06276
H         -4.71919        2.39480        0.15869
H         -4.88961        0.89745       -0.45737
