24
Coordinates from ORCA-job ./opt_b97-3c_parallel
N         -3.61195       -1.66515        0.36027
C         -2.79991       -0.62811        0.11341
C         -3.14784        0.70227        0.12308
C         -2.26318        1.75319        0.14276
C         -1.17879        0.97604       -0.10659
C         -0.08435        1.38046       -0.91860
N          0.97510        1.67149       -0.17691
C          1.84029        0.70827        0.15614
N          3.08556        0.97025        0.65217
C          3.74978       -0.24045        0.55849
C          3.04761       -1.24606       -0.05994
C          1.82084       -0.66992       -0.22208
C          0.79128       -1.49677       -0.66845
C         -0.59891       -1.43457       -0.62370
C         -1.48811       -0.39708       -0.14283
H         -1.11773       -2.36219       -0.85076
H          1.12990       -2.48040       -0.98557
H          3.16082       -2.28119        0.25688
H          4.79211       -0.43771        0.85415
H         -0.21383        2.47353       -0.94246
H         -2.27095        2.47655        0.95443
H         -4.20743        0.94495        0.10700
H         -4.54603       -1.51179        0.73585
H         -3.24761       -2.52684        0.76420
