32
Coordinates from ORCA-job ./opt_b97-3c_parallel
N         -2.26581       -3.37988        1.23129
C         -1.69807       -2.47547        0.82258
C         -1.01331       -1.34625        0.26988
C         -1.63655       -0.06051        0.11147
C         -1.07767        1.07142       -0.41526
N          0.09684        1.27962       -0.91861
C          1.33747        1.30197       -0.54667
N          1.52739        2.33566       -0.88132
H          2.05344        1.65453       -1.42569
H          1.06835        2.95454       -1.54686
C          2.00304        0.22523        0.14804
C          3.27429        0.28976        0.66529
C          3.49478       -0.92880        1.24730
C          2.44406       -1.72792        1.10316
C          1.47176       -1.08147        0.40154
C          0.28723       -1.56192       -0.08472
N          0.64343       -2.34356       -1.11947
H          0.02923       -3.10124       -1.41186
H          1.60195       -2.68038       -1.18750
H          2.36949       -2.74353        1.48461
H          4.40470       -1.21380        1.77464
N          4.09421        1.02545        0.72833
H          5.04038        1.30553        0.98114
H          3.66043        1.82575        0.27368
C         -2.04184        2.03792       -0.29869
C         -3.16389        1.56869        0.25003
N         -4.25621        2.30298        0.50714
H         -4.37387        3.22010        0.08135
H         -5.17087        1.86023        0.57216
C         -2.96069        0.25143        0.51189
H         -3.65164       -0.44524        0.97585
H         -1.89769        3.07371       -0.59827
