26
Coordinates from ORCA-job ./opt_b97-3c_parallel
N          4.44691        1.68934        1.08605
C          3.58225        1.00227        0.79076
C          2.52891        0.10913        0.42324
C          2.60888       -1.29609        0.69012
C          1.56944       -2.09656        0.28702
C          0.81096       -1.10343       -0.26893
C          1.32655        0.23154       -0.20052
N          0.75971        1.33965       -0.72684
C         -0.52911        1.22393       -1.22039
C         -1.57060        1.10859       -0.23573
C         -2.50552        2.03624        0.09905
C         -3.50305        1.39122        0.69939
C         -3.29418        0.07863        0.76294
C         -2.10761       -0.15921        0.14496
C         -1.51094       -1.42416       -0.20426
N         -1.88625       -2.44284       -0.00283
H         -1.78784       -3.44460        0.14951
H         -2.88125       -2.25251       -0.10421
C         -0.32721       -1.56252       -0.86836
H         -0.32674       -1.74174       -1.94212
H         -3.95785       -0.66261        1.20097
H         -4.38961        1.88186        1.09411
H         -2.44000        3.10837       -0.07041
H         -0.42610        2.27850       -1.51697
H          1.76107       -3.02483       -0.24666
H          3.48907       -1.69387        1.18617
