30
Coordinates from ORCA-job ./opt_b97-3c_parallel
N         -2.59184       -3.53549        0.31019
C         -1.89072       -2.63739        0.21454
C         -1.03201       -1.49826        0.06261
C         -1.57328       -0.16058        0.04778
C         -1.01765        1.01826       -0.33926
N          0.10379        1.26001       -0.91139
C          1.28174        1.25552       -0.40296
N          1.49877        2.31793       -0.61840
H          2.14922        1.73664       -1.14364
H          1.09556        2.97844       -1.27994
C          1.94153        0.07815        0.08245
C          3.33581        0.16587        0.38729
C          3.74247       -1.10224        0.65331
C          2.71043       -1.92309        0.51642
C          1.56280       -1.25053        0.19499
C          0.29103       -1.94738        0.06565
H          0.43320       -3.02501        0.13508
H          2.76813       -2.99762        0.67391
H          4.75133       -1.41597        0.92144
N          4.16711        0.89256        0.42199
H          5.09340        1.03176        0.82053
H          3.72936        1.80978        0.35580
C         -2.00396        1.96374       -0.24448
C         -3.16420        1.43469        0.13771
N         -4.30349        2.12054        0.31443
H         -5.09386        1.68657        0.78790
H         -4.27520        3.10246        0.58196
C         -2.94692        0.10711        0.30991
H         -3.68353       -0.64022        0.58782
H         -1.85469        3.02072       -0.45450
