27
Coordinates from ORCA-job ./opt_b97-3c_parallel
N          4.08846        2.23341       -0.51672
C          3.23388        1.48490       -0.40048
C          2.20576        0.50180       -0.23484
C          2.82345       -0.71067       -0.10261
N          1.94835       -1.69126        0.06288
C          0.74520       -0.99781        0.01994
C          0.84425        0.36278       -0.14156
N          0.44954        1.00212        0.66723
C         -0.50307        1.49880        0.43478
C         -1.82421        1.14816        0.02483
C         -2.87584        2.08570       -0.16008
C         -4.01180        1.39421       -0.44679
C         -3.74904        0.09005       -0.45425
C         -2.42356       -0.13211       -0.18806
C         -1.81278       -1.44918       -0.04046
N         -2.42014       -2.37220       -0.07588
H         -3.35795       -2.02827        0.12669
H         -2.46286       -3.38518        0.02716
C         -0.41577       -1.85237        0.10323
H         -0.20083       -2.91741        0.20749
H         -4.48926       -0.68320       -0.65393
H         -4.98683        1.84005       -0.62997
H         -2.77336        3.15784       -0.02834
H         -0.42912        2.59209        0.54641
N          3.65940       -1.43849       -0.04580
H          3.99568       -2.40172       -0.05407
H          4.49294       -0.84928       -0.05716
