30
Coordinates from ORCA-job ./opt_b97-3c_parallel
N          0.11841       -4.04155        0.23353
C          0.07848       -2.92113        0.00824
C          0.06184       -1.50999       -0.25249
C          1.03554       -1.12550       -1.11354
C          2.01099       -0.67285       -0.29173
C          2.11767        0.70121        0.03399
C          1.25595        1.78990       -0.33998
C         -0.15317        1.72256       -0.67871
C         -1.12893        0.70337       -0.31123
C         -1.04890       -0.67457        0.10681
C         -2.21817       -1.21263        0.58388
C         -3.03844       -0.16951        0.23847
C         -2.45225        1.03510       -0.26518
C         -3.23884        2.19368       -0.56655
N         -3.51853        3.25876       -0.25968
N         -4.07467       -0.49396        0.45167
H         -4.62915        0.35717        0.37429
H         -4.69589       -1.27112        0.23378
H         -2.24677       -1.66129        1.57747
H         -0.57216        2.68382       -0.95877
H          1.69524        2.78202       -0.33875
C          3.45419        0.88585        0.49987
C          4.03506       -0.34829        0.52935
C          3.18753       -1.26163        0.06599
H          3.40205       -2.32455       -0.01492
H          5.04341       -0.56476        0.87982
N          4.07965        1.75345        0.77013
H          4.95511        2.02314        0.32602
H          3.45382        2.55328        0.70478
H          1.26824       -1.69472       -2.01122
