34
Coordinates from ORCA-job ./opt_b97-3c_parallel
N         -5.60651       -2.14766        1.14252
C         -4.60412       -1.68048        0.85456
C         -3.36119       -1.08438        0.45200
C         -2.31988       -1.89411        0.11019
C         -1.33509       -0.99624       -0.22098
C         -1.80348        0.29993       -0.14362
C         -1.14438        1.49867       -0.66285
N         -1.84275        2.28368       -1.03109
H         -1.67687        3.28903       -1.03721
H         -2.85150        2.15191       -1.09088
C          0.20956        1.80892       -0.45832
C          0.65402        3.15554       -0.74253
N          1.01959        4.22136       -0.93832
C          1.11749        0.94471        0.27114
C          2.27492        1.47925        0.93348
C          3.26425        0.58568        1.27323
N          4.35327        1.23919        1.71884
H          5.16764        0.71869        2.04092
H          4.25905        2.07407        2.29385
C          2.74138       -0.50950        0.62861
C          3.77671       -1.49722        0.71292
N          4.21389       -2.45894        1.15028
C          1.44181       -0.35639        0.05727
C          0.93904       -1.28108       -0.92129
C          1.63371       -2.38037       -1.52509
N          2.22263       -3.25427       -1.96641
C         -0.39843       -1.34723       -1.25200
H         -0.72008       -2.17499       -1.88262
H          2.36138        2.54740        1.11594
C         -3.11132        0.31489        0.29927
N         -3.92728        1.03360        0.52018
H         -3.46857        1.74395        1.08741
H         -4.79447        0.78648        0.99386
H         -2.48852       -2.79451       -0.47804
