22
Coordinates from ORCA-job ./opt_b97-3c_parallel
N          2.59555        3.00949       -0.03669
C          2.35101        1.89439       -0.05104
C          1.97291        0.51637       -0.07828
C          2.89129       -0.58464       -0.02175
N          3.99241       -0.62490        0.05707
C          2.34885       -1.84599       -0.08545
C          1.03855       -1.45772       -0.16214
N          0.11375       -2.44634       -0.24745
C         -1.22524       -2.10638       -0.21320
N         -2.52523       -1.63419       -0.16573
C         -2.74175       -0.26127       -0.02646
N         -3.92863        0.41141        0.15434
C         -3.65989        1.76651        0.26019
N         -2.29300        1.95200        0.12809
C         -1.69687        0.72482       -0.05090
N         -0.43268        0.50258       -0.23117
C          0.73667       -0.04939       -0.16025
H          4.57666        0.19549       -0.10432
H          4.60779       -1.33503        0.45386
H          2.65656       -2.63700        0.60033
H         -1.26678       -3.20414       -0.31923
H         -4.41951        2.54987        0.42148
