30
Coordinates from ORCA-job ./opt_b97-3c_parallel
N         -2.73262        2.02793        2.37320
C         -1.94672        1.66297        1.62643
C         -1.63355        1.19460        0.66710
C         -0.98603        2.03229       -0.19747
N         -0.80006        2.69037       -1.06472
N          0.20498        1.54932       -0.34578
C          1.02729        0.58473       -0.08222
C          2.44987        0.79163        0.01893
C          3.04017        2.09508       -0.08135
N          3.48557        3.14599       -0.13559
C          3.25256       -0.31456        0.21640
N          4.56839       -0.37703        0.49596
C          2.25740       -1.26047        0.19873
C          2.68366       -2.62923        0.28352
N          2.56237       -3.49535       -0.45418
C          0.92978       -0.75706        0.08594
C         -0.22082       -1.63528        0.03861
C         -1.55147       -1.23823       -0.00053
N         -2.50899       -2.19720       -0.22642
C         -3.74118       -1.57162       -0.18640
N         -4.61354       -2.22550       -0.34665
N         -3.54904       -0.22817        0.09106
C         -2.19618        0.02027        0.23907
H          0.03798        3.19475       -1.35572
H         -1.55520        3.37396       -1.06852
H          5.17110        0.42507        0.31252
H          5.09921       -1.22125        0.28801
H         -0.01957       -2.70166        0.00016
H         -4.69326       -3.23134       -0.49368
H         -5.53138       -1.90767       -0.03680
