24
Coordinates from ORCA-job ./opt_b97-3c_parallel
N          4.33470       -0.73862       -0.17268
C          3.30975       -0.31639       -0.11762
C          2.76140        0.93100        0.08480
C          1.41323        0.71591        0.05957
N          0.56124        1.78416        0.35547
C         -0.75747        1.78803       -0.05297
N         -1.02873        2.79294        0.32293
N         -1.33577        1.02468       -0.91814
C         -1.96816        0.01853       -0.41711
C         -3.31075       -0.20772       -0.37661
C         -3.50295       -1.42901        0.10217
C         -2.35763       -2.02755        0.39648
C         -1.34834       -1.16576        0.09900
N         -0.01943       -1.41577        0.05430
C          1.10773       -0.67966       -0.11537
N          2.33146       -1.30110       -0.19968
H          5.12956       -0.33368       -0.67597
H          4.72787       -1.56748        0.28277
H          3.19765        1.81525       -0.37968
H         -0.59212        3.64238        0.68805
H         -1.99848        3.06451        0.14510
H         -4.09185        0.47629       -0.70407
H         -4.48260       -1.88713        0.23224
H         -2.25000       -3.03317        0.80016
