31
Coordinates from ORCA-job ./opt_b97-3c_parallel
N          3.99177       -0.75556       -0.83653
C          3.01468        0.13158       -0.59105
C          3.15741        1.44383       -0.75849
C          2.05672        2.12586       -0.48164
C          1.11120        1.21633       -0.14769
C         -0.20697        1.52058        0.35537
C         -1.30188        0.59341        0.19462
C         -2.60791        1.03632        0.57208
N         -3.34708        1.71869        1.02251
N         -3.42783        0.10331        0.09570
C         -2.69730       -0.79560       -0.56621
N         -3.48313       -1.50609       -0.88341
C         -1.27587       -0.56533       -0.67791
C         -0.37411       -1.67028       -0.79409
C          0.39743       -1.98619        0.27613
C          1.36958       -1.15622        0.64049
N          2.10308       -1.33271        1.75073
C          1.74202       -0.07540       -0.12776
H          4.79051       -0.49816       -1.41340
H          3.77217       -1.73444       -1.01162
H          4.08051        1.91301       -1.09391
H          1.92974        3.20404       -0.54796
H         -0.43585        2.54061        0.64925
H         -4.24639        2.19538        0.96825
H         -2.68360        2.39714        1.39385
H         -3.25206       -2.48486       -1.05028
H         -4.49972       -1.44213       -0.93316
H         -0.24125       -2.19631       -1.73433
H          0.15010       -2.85143        0.88828
H          2.20835       -2.26421        2.14973
H          3.00726       -0.86775        1.83089
