34
Coordinates from ORCA-job ./opt_b97-3c_parallel
N         -5.69668       -0.33335       -0.13460
C         -4.55538       -0.22685       -0.15856
C         -3.12805       -0.06663       -0.15324
C         -2.44833        1.08365       -0.50772
N         -2.90585        2.04455       -0.81984
C         -1.06719        0.79207       -0.29040
C         -0.13341        1.86512       -0.24854
N          0.78657        1.85613        0.65063
C          1.98598        1.41186        0.74039
N          2.44172        2.29567        1.21774
C          2.40064        0.21198        0.08711
C          3.78537       -0.08389       -0.10599
N          4.75198        0.41700        0.07963
C          3.85637       -1.33951       -0.62489
C          2.63768       -1.85752       -0.73417
C          1.67847       -0.96909       -0.30981
C          0.32884       -1.33919        0.14410
N          0.22456       -2.43900        0.23096
C         -0.88389       -0.50784        0.09997
C         -2.19793       -1.10359        0.25677
N         -2.60186       -2.09333        0.56475
H         -2.49703        2.86788       -1.25717
H         -3.91332        2.10795       -0.95717
H         -0.35777        2.90798       -0.52375
H          2.97721        1.62380        1.76688
H          2.29727        3.10705        1.81556
H          5.58674        0.45845       -0.50007
H          4.49869        1.37774        0.30337
H          4.76961       -1.85036       -0.92545
H          2.43521       -2.83997       -1.15567
H         -0.59284       -2.82339       -0.24000
H          0.94133       -3.16052        0.21787
H         -1.94047       -2.51545        1.21543
H         -3.53126       -2.23112        0.96057
