31
Coordinates from ORCA-job ./opt_b97-3c_parallel
N         -3.02428       -2.67370       -0.46672
C         -2.54186       -1.68853       -0.30224
N         -3.59977       -0.77712       -0.20072
C         -3.04991        0.43589        0.01447
N         -3.92393        1.11758        0.05792
C         -1.68186        0.40361        0.05318
C         -0.85689        1.58534        0.15159
N         -1.08876        2.65328        0.29379
N          0.40402        1.64680       -0.12622
C          1.66584        1.37741       -0.22899
N          2.12483        2.33536       -0.51883
C          2.12392        0.05903        0.07929
C          3.43755       -0.30989        0.15216
N          4.49650       -0.00034        0.05911
N          3.54696       -1.57447        0.52988
C          2.21212       -1.92559        0.67070
C          1.15508       -0.96844        0.37163
C         -0.03364       -1.66578       -0.06791
C         -1.30851       -0.96896       -0.11987
H         -2.55603       -3.47225       -0.89864
H         -3.98556       -2.99010       -0.31983
H         -3.59358        2.08559        0.03822
H         -4.94285        1.19165        0.11636
H         -1.16552        2.85272        1.29150
H         -0.61366        3.45992       -0.11343
H          2.44632        2.25624       -1.48348
H          1.84697        3.30970       -0.39640
H          5.42655       -0.41100        0.15924
H          4.65455        1.00299       -0.04686
H          2.56689       -2.92156        0.98224
H         -0.04175       -2.73764       -0.24894
