28
Coordinates from ORCA-job ./opt_b97-3c_parallel
N          3.75829       -2.99134       -0.07111
C          3.37376       -1.91554       -0.09911
C          2.85121       -0.58172       -0.13171
C          3.70727        0.56549        0.00865
N          4.79858        0.68065        0.15534
C          3.12737        1.81123       -0.04434
C          1.83996        1.37596       -0.18688
N          1.00043        2.40865       -0.33925
C         -0.30985        2.06945       -0.30688
N         -1.53477        1.71697       -0.27120
C         -1.68310        0.43922       -0.18369
C         -3.01409       -0.03779        0.09830
C         -4.14656        0.80412        0.36335
N         -5.04863        1.46164        0.61049
C         -3.06285       -1.39457        0.11436
N         -4.08156       -2.24037        0.34182
C         -1.83362       -1.79492       -0.15055
C         -0.97104       -0.74417       -0.26657
C          0.46238       -0.95822       -0.36128
C          1.59897       -0.04561       -0.24373
H          5.26120        1.26343        0.85080
H          5.09105       -0.27830        0.33540
H          3.36596        2.58578        0.68608
H         -0.61472        3.10463       -0.52381
H         -5.03993       -1.89699        0.37756
H         -4.08536       -3.17283       -0.06669
H         -1.53322       -2.83880       -0.21565
H          0.72931       -2.00926       -0.40793
