34
Coordinates from ORCA-job ./opt_b97-3c_parallel
N          5.43485       -0.05539       -0.92882
C          4.30859        0.03414       -0.75792
C          2.89127        0.11591       -0.51368
C          2.29783        1.29032        0.08257
N          2.84630        2.20288        0.38868
C          0.89092        1.00254        0.16399
C          0.06642        2.01445        0.80576
C         -1.34428        2.14457        0.57831
C         -1.82828        1.52585       -0.61727
N         -2.17372        1.84353       -1.61417
C         -2.36806        0.46352        0.17014
C         -3.75752        0.38483        0.51654
N         -4.04647       -0.88698        0.88702
C         -2.86809       -1.60138        0.71374
N         -3.26073       -2.59710        0.98904
C         -1.80598       -0.75873        0.26590
C         -0.48906       -1.19916       -0.15625
N         -0.49625       -2.29813       -0.29955
C          0.65186       -0.28656       -0.29106
C          1.91129       -0.83941       -0.72877
N          2.22861       -1.82314       -1.13182
H          2.73570        3.12414        0.80837
H          3.84413        2.07947        0.22178
H          0.53910        2.80978        1.37436
H         -1.85398        2.97708        1.05660
H         -1.85559        2.81222       -1.58610
H         -2.48435        1.67612       -2.57115
H         -4.62006        1.06781        0.48897
H         -2.37744       -2.94142        0.60773
H         -3.74179       -3.40769        1.37681
H         -0.38773       -2.03354       -1.27957
H          0.43320       -2.58567        0.00896
H          2.87845       -1.62907       -1.89353
H          2.65697       -2.56122       -0.57445
