21
Coordinates from ORCA-job ./opt_b97-3c_parallel
N          2.28285        1.63422       -2.32061
C          1.55717        0.95890       -1.75601
C          1.28307        0.71464       -0.71100
C          0.60788        1.46961        0.19873
N          0.71598        2.35668        0.85070
N         -0.67150        1.69453        0.51840
C         -1.71460        0.96781        0.06909
N         -2.99320        1.47357        0.05297
C         -3.84089        0.48057       -0.41641
N         -3.08938       -0.66689       -0.64053
C         -1.76509       -0.40312       -0.36386
N         -0.86146       -1.47368       -0.25138
C          0.50826       -1.53392        0.03150
N          1.17113       -2.67533        0.42064
C          2.52234       -2.39471        0.54092
N          2.70129       -1.06881        0.17843
C          1.48845       -0.51579       -0.16671
H          0.40996        3.30872        1.06347
H          1.73637        2.40720        0.84522
H         -4.93298        0.57713       -0.54234
H          3.26035       -3.15468        0.84928
