32
Coordinates from ORCA-job ./opt_b97-3c_parallel
N          3.49686       -2.22095        0.76166
C          2.90397       -1.11912        0.27648
C          3.61173        0.02007       -0.02993
C          3.13019        1.12825       -0.68463
C          1.84588        0.82839       -0.36518
C          0.82328        1.84613       -0.25185
N          0.82383        2.92883       -0.46525
N         -0.28599        1.76420        0.41576
C         -1.49052        1.29331        0.48110
N         -2.02182        2.13345        0.95904
C         -1.77102        0.00298       -0.07218
C         -3.10965       -0.50986       -0.09230
N         -4.18980       -0.43857        0.12076
N         -2.69122       -1.35429       -0.66333
C         -1.80562       -1.30701       -1.32152
C         -0.68479       -0.78480       -0.58669
C          0.44054       -1.23803        0.19875
N          0.26793       -2.28074        0.52108
C          1.69921       -0.52374        0.07695
H          4.45055       -2.17143        1.11464
H          2.97390       -2.85089        1.36749
H          4.65044        0.05837        0.28372
H          3.54521        2.11225       -0.48224
H          0.02208        3.51257       -0.69469
H          1.25040        2.64858       -1.34571
H         -1.59484        2.91654        1.45029
H         -2.09620        1.36942        1.62788
H         -4.73570       -0.58955       -0.72450
H         -3.90928        0.54015        0.12503
H         -1.78472       -2.33749       -1.70723
H         -0.43538       -2.93439        0.18255
H          1.16689       -2.59356        0.15809
