23
Coordinates from ORCA-job ./opt_b97-3c_parallel
N          2.23414        1.57283        2.40279
C          1.52789        1.06618        1.66009
C          1.12254        0.73359        0.68076
C          0.71122        1.62927       -0.26488
N          0.71341        2.43360       -1.02270
N         -0.57314        1.58982       -0.41698
C         -1.57269        0.84206       -0.07548
C         -2.84701        1.45782        0.08881
C         -3.79766        0.42748        0.37484
N         -3.14954       -0.79319        0.40112
C         -1.87329       -0.47401        0.16042
C         -0.97330       -1.60342        0.05849
C          0.40775       -1.55499       -0.07576
N          1.07554       -2.70677       -0.40730
C          2.42146       -2.39587       -0.44418
N          2.59582       -1.06819       -0.09240
C          1.35889       -0.51133        0.16587
H          1.67729        2.54954       -0.71625
H          0.27104        3.34900       -0.96558
H         -3.06835        2.51526       -0.01735
H         -4.87349        0.29865        0.56561
H         -1.44122       -2.58410        0.04117
H          3.05544       -3.25285       -0.71743
