29
Coordinates from ORCA-job ./opt_b97-3c_parallel
N         -3.98128        0.48471       -1.02725
C         -2.98030       -0.13667       -0.38463
C         -3.10358       -1.33086        0.18728
C         -1.99791       -1.73632        0.79958
C         -1.04126       -0.77963        0.62890
C          0.39299       -1.06575        0.56195
N          0.71509       -2.11524        0.71899
C          1.37138       -0.18108       -0.04788
C          2.52955       -0.58356       -0.65879
N          3.19294       -1.38999       -1.02051
N          3.32077        0.43013       -1.03454
C          2.67014        1.58006       -0.59111
C          1.44249        1.23174        0.06412
C          0.75790        2.04726        0.90705
C         -0.54583        2.22042        0.78469
C         -1.26474        1.62842       -0.20738
C         -1.71104        0.26770       -0.09908
H         -3.80359        1.26388       -1.65797
H         -4.79340       -0.03202       -1.36125
H         -4.02091       -1.91486        0.16867
H         -1.88622       -2.67417        1.34089
H         -0.04975       -2.74577        0.47734
H          0.77968       -2.12476        1.73723
H          2.50989       -2.06357       -0.67009
H          4.08605       -1.87987       -1.06043
H          3.29100        2.47262       -0.76295
H          1.28857        2.55096        1.71240
H         -1.06337        2.87206        1.48591
H         -1.90316        2.27425       -0.80271
