29
Coordinates from ORCA-job ./opt_b97-3c_parallel
N         -5.15596        0.90651       -0.05418
C         -4.04679        0.62657       -0.01719
C         -2.66106        0.24328        0.00715
C         -2.13160       -1.02902       -0.00534
N         -2.76903       -1.93470       -0.04039
C         -0.69659       -0.92849        0.02870
C          0.15722       -1.98778        0.02971
C          1.40655       -2.47744        0.19859
C          2.67045       -1.82646        0.12746
C          2.91199       -0.41555       -0.00381
C          4.29188       -0.06665       -0.06303
C          4.39143        1.27626       -0.13937
C          3.16312        1.76791       -0.12653
C          2.21126        0.78215       -0.04394
C          0.81337        1.14609        0.01136
C         -0.35977        0.40508        0.03544
C         -1.57493        1.18988        0.03978
N         -1.78046        2.28081        0.04984
H         -2.44062       -2.84563       -0.35408
H         -3.77180       -1.90438       -0.21895
H         -0.45460       -2.88236       -0.05318
H          1.50180       -3.55402        0.30917
H          3.53891       -2.47558        0.18665
H          5.11073       -0.77863       -0.02859
H          5.31342        1.84935       -0.20033
H          2.94116        2.83122       -0.17951
H          0.69326        2.22530       -0.00242
H         -2.68424        2.72833        0.19280
H         -1.06960        2.94590        0.34730
