25
Coordinates from ORCA-job ./opt_b97-3c_parallel
N          2.44625        2.21547        1.86748
C          1.47545        1.73587        1.50593
C          1.21761        1.12654        0.60730
C          0.52085        1.81213       -0.36209
N          0.62049        2.59974       -1.13771
N         -0.76023        2.07390       -0.67584
C         -1.78029        1.40636       -0.10317
N         -2.97403        1.98948        0.23656
C         -3.73074        1.01430        0.86382
N         -3.01199       -0.17419        0.86382
C         -1.78866        0.01950        0.24925
C         -0.99398       -1.02136       -0.19533
C         -1.40492       -1.92319       -0.69724
N         -1.71639       -2.31895       -1.72439
C          0.32744       -1.18153       -0.02758
N          1.42723       -1.89157       -0.12752
C          2.77945       -1.96427        0.06243
N          3.45851       -2.81333       -0.11662
N          2.53960       -0.65044        0.42662
C          1.20468       -0.23658        0.43156
H          0.29814        3.56291       -1.26044
H          1.61795        2.62815       -1.34831
H         -4.73945        0.98347        1.30748
H          4.41173       -2.71515        0.23570
H          3.34719       -3.80559       -0.33013
