20
Coordinates from ORCA-job ./opt_b97-3c_parallel
C         -3.46798        0.95128        0.16056
C         -3.25317       -0.46223        0.14511
C         -1.85797       -0.62114       -0.04330
N         -1.33140       -1.88324       -0.15182
C          0.01987       -1.89047       -0.16763
N          1.37101       -1.84267       -0.17715
C          1.91262       -0.58894       -0.01379
N          3.24586       -0.38163        0.22024
C          3.41396        0.98567        0.31799
C          2.26449        1.68449        0.06694
C          1.31010        0.71729       -0.07384
C          0.01119        1.21870       -0.20819
C         -1.32854        0.64620       -0.12144
N         -2.25862        1.60853       -0.03115
H         -4.46864        1.38215        0.31635
H         -3.99733       -1.24125        0.27777
H         -0.01261       -2.98157       -0.31636
H          4.45318        1.22844        0.58908
H          2.28049        2.57535       -0.55864
H         -0.02404        2.30485       -0.28671
