34
Coordinates from ORCA-job ./opt_b97-3c_parallel
N         -4.29348       -0.72915        0.03794
C         -3.26720        0.10290       -0.20141
C         -3.41898        1.31632       -0.71757
C         -2.27466        1.96664       -0.87148
C         -1.26128        1.16444       -0.43381
C          0.09537        1.64135       -0.14425
N          0.27092        2.73248       -0.21809
C          1.24669        0.81196        0.17120
C          2.51053        1.40565        0.51681
N          3.29149        2.14503        0.76455
N          3.37819        0.39810        0.52916
C          2.72119       -0.71682        0.21316
N          3.56571       -1.43114        0.22325
C          1.29939       -0.61802       -0.03868
C          0.59491       -1.77629       -0.51212
N          0.87462       -2.68579       -1.06877
N         -0.09243       -1.54380        0.56433
C         -1.33801       -1.19994        0.63923
N         -1.64061       -2.13865        1.13679
C         -1.92437       -0.05507       -0.01471
H         -5.20055       -0.56356       -0.39593
H         -4.14497       -1.73585        0.08012
H         -4.38385        1.73819       -0.99266
H         -2.17343        2.96481       -1.29088
H          0.66679        3.47759       -0.79180
H         -0.59987        3.09896        0.16528
H          2.46010        2.70329        0.95708
H          4.08952        2.69389        1.08104
H          4.55915       -1.64121        0.13354
H          3.06394       -2.26315       -0.09046
H          0.74355       -2.81643       -2.07203
H          0.13317       -3.21909       -0.61377
H         -2.44022       -1.54401        1.35343
H         -1.75208       -2.98361        1.69508
