26
Coordinates from ORCA-job ./opt_b97-3c_parallel
N          0.07029       -3.39639        0.11850
C          0.02021       -2.29401        0.04715
C          1.21203       -1.62654       -0.13978
C          1.66531       -0.34211        0.01427
N          3.05835       -0.20985       -0.00812
C          3.57383        1.08357        0.02455
N          4.66030        1.29595       -0.01847
C          2.39167        1.75385        0.03763
C          1.33032        0.97275        0.02591
N          0.01630        0.89366        0.01331
C         -1.30418        0.68783       -0.00030
N         -2.28159        1.65671       -0.01462
C         -3.51314        0.99930       -0.01596
N         -4.55188        1.37810       -0.02383
N         -3.29865       -0.37720        0.00147
C         -1.93755       -0.58006        0.00193
C         -1.39204       -1.92203        0.05208
H          0.90847       -3.97967        0.13258
H         -0.70548       -4.06020        0.07721
H          2.01922       -2.29782       -0.45197
H          5.13474        2.20067       -0.07797
H          5.41974        0.61070       -0.03350
H          2.32759        2.84082        0.04184
H         -5.38817        0.79083       -0.05074
H         -4.90510        2.33732       -0.01529
H         -2.13886       -2.71599        0.11162
