24
Coordinates from ORCA-job ./opt_b97-3c_parallel
N          4.40170       -1.18371       -0.50947
C          3.35698       -0.89651       -0.29938
N          3.10598        0.46537       -0.34142
C          1.77813        0.65589       -0.03351
C          1.28459        1.93964        0.10527
C          0.01838        2.49189        0.27242
C         -1.33763        1.98830        0.13008
C         -1.85471        0.71619       -0.04277
N         -3.13064        0.47249       -0.35270
C         -3.31084       -0.89731       -0.31516
N         -4.34857       -1.20142       -0.53804
N         -2.11937       -1.49528        0.05909
C         -1.21771       -0.52133        0.23267
C         -0.02772       -0.75631        0.83245
C          1.18287       -0.59459        0.24863
N          2.17722       -1.53212        0.07411
H          5.20502       -0.55486       -0.47825
H          4.78553       -2.12611       -0.44136
H          2.05554        2.70510        0.04734
H          0.01389        3.57368        0.37635
H         -2.05934        2.80124        0.09715
H         -4.72545       -2.14783       -0.47826
H         -5.15938       -0.58128       -0.52343
H         -0.04589       -1.22572        1.81436
