23
Coordinates from ORCA-job ./opt_b97-3c_parallel
N         -4.16073        0.67775       -0.09301
C         -3.16615        0.21048        0.03049
C         -2.63796       -1.00217        0.36872
C         -1.31278       -0.71879        0.23404
N         -0.60036       -1.80589        0.58471
C          0.66731       -1.86696        0.05779
N          1.23756       -1.22955       -0.90629
C          1.97094       -0.35745       -0.30405
C          3.33029       -0.28735       -0.26051
C          3.67164        0.94434        0.10242
C          2.60979        1.70635        0.32349
C          1.51569        0.93436        0.09906
C          0.15868        1.41150       -0.02873
C         -1.04166        0.59753       -0.10058
N         -2.23647        1.08706       -0.18498
H         -4.45320        1.64333        0.05657
H         -4.99746        0.17196       -0.38442
H         -3.05840       -1.92327       -0.03420
H          1.15033       -2.79442        0.40474
H          4.01960       -1.09278       -0.50267
H          4.69981        1.28576        0.20394
H          2.61805        2.75022        0.62923
H          0.01905        2.48789       -0.00874
