24
Coordinates from ORCA-job ./opt_b97-3c_parallel
N          3.37515        2.43409        0.17604
C          2.80918        1.44437        0.10328
C          2.06713        0.22027       -0.01317
C          2.80483       -1.01022        0.11458
N          3.86434       -1.26806        0.30768
C          2.13797       -2.20302       -0.01421
C          0.90409       -1.63946       -0.16611
N          0.04409       -2.56879       -0.59752
C         -1.24856       -2.18289       -0.50691
N         -2.53794       -1.79413       -0.41496
C         -2.69028       -0.52846        0.08649
N         -3.91544       -0.06020        0.50033
C         -3.78696        1.27868        0.80807
N         -2.49079        1.65871        0.51761
C         -1.75369        0.56546        0.08438
C         -0.38458        0.72515       -0.23306
C         -0.04364        2.11230       -0.44006
N         -0.06268        2.98738       -1.17738
C          0.76302       -0.20534       -0.16575
H          4.30879       -0.36266        0.45524
H          4.36904       -1.93277        0.89291
H          2.27787       -3.02236        0.69505
H         -1.52188       -3.16033       -0.96096
H         -4.50926        2.01545        1.19316
