25
Coordinates from ORCA-job ./opt_b97-3c_parallel
N         -2.88859        3.00935       -0.11769
C         -2.53512        1.92300       -0.07406
C         -2.12160        0.55271        0.00762
C         -2.90711       -0.57584        0.09504
N         -4.00526       -0.70591        0.12389
C         -2.20520       -1.75404        0.17380
C         -0.91077       -1.31639        0.11322
N         -0.04856       -2.38660        0.05026
C          1.32005       -2.51383       -0.02283
C          2.47392       -1.67089        0.05823
C          2.64918       -0.24570        0.11114
C          3.92812        0.22318        0.18990
C          3.79494        1.58046        0.08225
N          2.47890        1.98451       -0.01153
C          1.73004        0.83749        0.01064
C          0.31254        1.03306       -0.07496
C         -0.76871        0.09119        0.01319
H         -4.75822       -1.38523        0.03268
H         -4.42814        0.21633        0.03004
H         -2.52471       -2.64742       -0.36335
H          1.54239       -3.59110       -0.05521
H          3.40268       -2.23392        0.06801
H          4.75798       -0.29353       -0.28674
H          4.48298        2.43855        0.05427
H          0.02533        2.07674       -0.15197
