34
Coordinates from ORCA-job ./opt_b97-3c_parallel
N         -1.56619       -3.56931       -1.67027
C         -1.26000       -2.56929       -1.20937
C         -0.97940       -1.33847       -0.49920
C         -2.07830       -0.53835       -0.22428
N         -3.14917       -0.76331       -0.43676
C         -1.88357        0.78886        0.33865
C         -2.99486        1.50870        0.89682
N         -2.24229        2.32635        0.85745
C         -1.37514        2.94498        0.53852
C         -0.86118        1.67155        0.11434
C          0.36698        1.60983       -0.55057
N          0.77628        2.55921       -0.95412
C          1.33799        0.53466       -0.37645
C          2.69776        0.67608       -0.60187
N          3.45831        1.35623       -1.03566
C          3.44648       -0.31104        0.00708
C          2.49546       -1.13996        0.55051
N          3.06995       -1.99044        0.96765
C          1.15204       -0.68404        0.32597
C         -0.01502       -1.38680        0.58305
N          0.14755       -2.33508        1.14121
H         -3.59399        0.00566       -0.93483
H         -3.42352       -1.62137       -0.91227
H         -4.05221        1.42362        1.18835
H         -1.13403        4.01689        0.59705
H          0.27815        3.42135       -1.16403
H          1.75192        2.80458       -0.79510
H          4.39946        1.41997       -1.41888
H          2.81303        1.40529       -1.82160
H          4.36094       -0.06876        0.56301
H          2.37131       -1.76721        1.67557
H          3.95244       -2.12311        1.45792
H          1.01446       -2.80087        0.87563
H         -0.59594       -3.02399        1.03962
