29
Coordinates from ORCA-job ./opt_b97-3c_parallel
N          5.43666        0.69561        0.01325
C          4.40438        0.21055        0.00936
C          3.13165       -0.43920        0.00354
C          1.83257        0.16724        0.00252
C          1.66590        1.60885        0.01110
C          0.46266        2.44914        0.01051
N          0.77717        3.50842        0.01935
C         -0.93468        2.33990        0.00103
C         -1.78151        1.17054       -0.00699
N         -3.09954        1.44188       -0.01345
C         -3.78488        0.31149       -0.01418
N         -4.87430        0.52426       -0.01731
C         -2.87594       -0.70551       -0.00772
C         -3.17381       -2.10137        0.00161
N         -3.37767       -3.22389        0.01777
C         -1.60281       -0.18913       -0.00564
N         -0.40609       -0.71017       -0.00588
C          0.90537       -0.90052       -0.00512
N          1.55464       -2.12253       -0.00876
C          2.92340       -1.86526       -0.00397
N          3.57542       -2.76282       -0.00636
H          2.61397        2.14939        0.01857
H          0.20523        4.35358        0.05616
H          1.74038        3.84705        0.00797
H         -1.50264        3.27426        0.00064
H         -5.54650       -0.24756       -0.01131
H         -5.45449        1.36702       -0.02570
H          3.52916       -3.78462       -0.00027
H          4.57788       -2.55340       -0.00901
