31
Coordinates from ORCA-job ./opt_b97-3c_parallel
N          5.05354        1.34687       -1.08157
C          4.00689        1.32404       -0.62147
C          3.22315        0.20098       -0.20071
C          3.76297       -1.03604        0.03493
N          4.66631       -1.67444        0.05200
N          2.72379       -1.87196        0.34593
C          1.59237       -1.07958        0.28804
C          0.34192       -1.78721        0.37285
C         -0.98940       -1.23734        0.17411
C         -2.03436       -2.20759        0.06492
C         -3.30567       -1.73326       -0.15278
N         -4.12545       -2.76438       -0.42372
C         -3.00316       -0.39249       -0.13520
C         -4.28236        0.22209       -0.34243
N         -4.58968        0.78956       -1.28628
C         -1.63559       -0.02550        0.06845
C         -1.33108        1.38920        0.21958
C         -2.15460        2.56269        0.25288
N         -2.56014        3.57138       -0.09991
C          0.00387        1.89171        0.39673
N          0.75719        2.68805        0.55744
N          1.05760        1.19581        0.17485
C          1.87448        0.22255        0.01756
H          5.35194       -1.01810       -0.32714
H          5.14259       -2.57382        0.11761
H          0.41003       -2.86540        0.49269
H         -1.79585       -3.26698        0.13546
H         -4.07452       -3.62091        0.12458
H         -5.10825       -2.58906       -0.63168
H         -0.11713        3.18596        0.72011
H          1.49954        3.35204        0.77159
