31
Coordinates from ORCA-job ./opt_b97-3c_parallel
N         -1.71102       -1.64180       -1.74327
C         -1.50771       -1.24944       -0.73296
C         -1.05528       -2.02703        0.37945
C          0.34977       -1.93429        0.65336
C          1.17122       -0.84737        0.15950
C          2.59055       -1.03296        0.14114
N          3.29701       -1.84594        0.39230
C          3.31520        0.04445       -0.31661
C          2.29241        0.96185       -0.39660
N          2.85818        1.89769       -0.57529
C          0.96195        0.47065       -0.17028
C         -0.15426        1.40627       -0.02530
N         -0.02891        2.50631       -0.08329
C         -1.49594        0.96627        0.31050
C         -2.53034        1.84681        0.75708
N         -3.06826        0.86191        0.67512
C         -3.45549       -0.15359        0.38390
C         -2.05889       -0.23753        0.11657
H         -2.22812       -2.51690       -1.79813
H         -2.37649       -0.89041       -1.91616
H         -1.59025       -2.89634        0.74975
H          0.82213       -2.77971        1.14337
H          4.25659       -1.76177        0.72134
H          2.73725       -2.15489        1.18391
H          4.03084       -0.08193       -1.13555
H          2.22906        2.20261        0.16593
H          3.77320        2.29144       -0.36419
H          0.75137        2.51749       -0.73822
H         -0.86295        2.71665       -0.62777
H         -2.68058        2.90506        1.01649
H         -4.48731       -0.53465        0.37116
