35
Coordinates from ORCA-job ./opt_b97-3c_parallel
N          1.22118       -2.39630       -1.44985
C          1.10274       -1.83204       -0.51146
N          0.18300       -1.85525        0.40192
C         -1.08484       -1.63950        0.56347
N         -1.28250       -2.61211        1.04145
C         -1.73343       -0.45331        0.07615
C         -3.16103       -0.37965        0.08742
N         -4.17658       -0.74930        0.30126
N         -3.41759        0.71266       -0.62200
C         -2.25460        1.24295       -1.00761
N         -2.72777        2.08223       -1.55881
C         -1.00869        0.65018       -0.53757
C          0.07474        1.45395        0.01294
N         -0.13400        2.48588        0.35482
C          1.38693        0.83370        0.09128
C          2.50635        1.53270        0.65801
N          3.05113        2.36845        1.12770
N          3.51368        0.66501        0.59989
C          3.06608       -0.46706        0.05414
N          4.00853       -1.04886        0.08440
C          1.67149       -0.52322       -0.33766
H          1.48455       -2.55689       -2.42241
H          0.80525       -3.26835       -1.12183
H         -1.66243       -2.59894        1.98742
H         -1.11512       -3.59284        0.81744
H         -5.19226       -0.70362        0.21855
H         -3.96834       -1.64879        0.73419
H         -2.18486        2.86914       -1.91288
H         -3.70372        2.33477       -1.72294
H         -0.57162        2.96204        1.14442
H          0.50011        3.16487       -0.06762
H          3.92119        2.90078        1.10939
H          2.46490        2.80656        1.83700
H          4.98414       -0.89366        0.34328
H          3.95012       -2.03179       -0.18442
