35
Coordinates from ORCA-job ./opt_b97-3c_parallel
N          2.86134        3.17212        1.99304
C          2.26000        2.41732        1.38042
C          1.53035        1.47400        0.57417
C          1.99067        0.10156        0.54745
C          3.26845       -0.27649        1.06724
C          3.65855       -1.45991        0.51897
N          4.80102       -2.12065        0.75319
C          2.72629       -1.84488       -0.34746
C          1.67219       -0.97349       -0.34184
C          0.31579       -1.37296       -0.66428
C          0.11813       -2.63781       -1.31218
N         -0.02266       -3.63150       -1.85901
C         -0.77031       -0.68348        0.00846
C         -1.99695       -1.32269        0.41666
C         -2.13463       -2.72140        0.71151
N         -2.25712       -3.82574        0.97947
C         -3.06504       -0.48796        0.67768
N         -4.33959       -0.88512        0.87708
C         -2.48181        0.68682        0.25674
C         -3.43608        1.75895        0.31724
N         -3.77268        2.71229        0.85067
C         -1.09283        0.63091       -0.09536
C         -0.41925        1.62081       -0.90724
C         -1.30437        2.29481       -1.82623
N         -1.86029        3.00646       -2.52770
C          0.92647        1.89472       -0.67681
N          1.27999        2.81936       -1.18540
H          3.91260        0.38645        1.63642
H          4.85757       -3.12357        0.58529
H          5.35806       -1.90686        1.57853
H          2.79237       -2.74661       -0.95319
H         -5.03948       -0.22592        1.21399
H         -4.54064       -1.80118        1.27509
H          0.64608        3.52133       -1.56521
H          2.14272        3.30598       -0.94731
