24
Coordinates from ORCA-job ./opt_b97-3c_parallel
N          3.91602       -2.11754       -0.60963
C          3.16410       -1.26636       -0.49689
C          2.20277       -0.22603       -0.32139
C          2.58304        1.08810        0.12675
N          3.29577        1.86243        0.45996
N          1.50887        1.89723        0.20448
C          0.46763        1.07199       -0.15790
N         -0.76055        1.61513       -0.29328
C         -1.99696        0.95659       -0.36993
N         -3.12952        1.69865       -0.56660
C         -4.17769        0.86719       -0.20823
N         -3.78614       -0.26805        0.29900
C         -2.49957       -0.28592        0.15858
C         -1.75325       -1.44911        0.58515
C         -0.49907       -1.78247       -0.02352
N         -0.06041       -2.77270        0.19091
N          0.01829       -1.10884       -0.99378
C          0.84993       -0.23628       -0.54106
H          4.14864        1.35291        0.69108
H          3.56803        2.84013        0.36119
H         -5.25723        1.08798       -0.22237
H         -2.26328       -2.21075        1.17275
H          0.82776       -3.26209        0.07968
H         -0.77954       -3.49565        0.16521
