29
Coordinates from ORCA-job ./opt_b97-3c_parallel
N         -4.07783       -0.66391        0.12624
C         -2.98991       -0.46373        0.04714
N         -3.31656        0.75176       -0.51023
C         -2.31296        1.53556       -0.83260
C         -1.20047        0.86025       -0.41886
C          0.12594        1.45843       -0.33133
N          0.19810        2.53682       -0.57831
C          1.27793        0.66571        0.08232
C          2.55509        1.30259        0.25390
N          3.29264        2.11955        0.28791
N          2.87500        0.27700        0.49204
C          2.66769       -0.80395        0.54982
C          1.26723       -0.76378        0.23495
C          0.91109       -2.08763       -0.20011
N          0.75621       -2.84336       -0.98593
N         -0.35929       -2.14214        0.04744
C         -1.40231       -1.58718        0.57876
C         -1.62503       -0.37599       -0.01085
H         -4.12524       -1.65466        0.36235
H         -5.03762       -0.32005        0.15211
H         -2.45072        2.52593       -1.29351
H          1.14486        2.51379       -0.95740
H         -0.01479        3.51941       -0.41100
H          4.25114        2.05918        0.62682
H          2.75682        2.60472        1.00426
H          3.59336       -1.38058        0.39928
H          0.73671       -3.84826       -0.81864
H          1.68771       -2.62573       -1.33638
H         -1.31214       -2.39216        1.32414
