27
Coordinates from ORCA-job ./opt_b97-3c_parallel
N          4.01329       -0.98268        0.26560
C          2.91177       -0.27014       -0.01685
C          2.96953        1.06833       -0.30128
C          1.90457        1.75899       -0.81214
C          0.93324        0.87210       -0.44725
C         -0.40362        1.32659       -0.04290
N         -0.62274        2.41014        0.05137
C         -1.54395        0.46501        0.22954
C         -2.71568        0.93326        0.90813
N         -3.00269       -0.11600        0.64485
C         -3.09572       -1.13401        0.18876
C         -1.78327       -0.77766       -0.24597
C         -0.95320       -1.39800       -1.12639
C         -0.30126       -2.04575       -0.12779
C          0.93210       -1.57960        0.42800
C          1.55804       -0.37298       -0.06474
H          3.93651       -1.85401        0.78616
H          4.86330       -0.51005        0.56598
H          3.88608        1.61267       -0.09306
H          1.81932        2.83030       -0.64686
H         -1.51135        2.37781       -0.44469
H          0.03399        2.88202       -0.56577
H         -3.08472        1.83893        1.41124
H         -3.99830       -1.75881        0.26656
H         -1.34989       -1.94031       -1.98058
H         -0.61911       -3.03933        0.17721
H          1.52723       -2.30149        0.97859
