31
Coordinates from ORCA-job ./opt_b97-3c_parallel
N          2.67256       -2.97950        0.57944
C          2.40992       -1.73702        0.14586
C          3.40841       -0.85321       -0.17752
C          3.18739        0.42847       -0.60892
C          1.87764        0.45378       -0.24494
C          1.16971        1.69108       -0.07253
N          1.53931        2.71659       -0.26313
N          0.10132        1.83097        0.63326
C         -1.13544        1.81390        0.28403
N         -1.54454        2.83340        0.39863
C         -1.75794        0.59222       -0.09549
C         -3.15303        0.46486       -0.34652
C         -3.59386       -0.82560       -0.48874
C         -2.42783       -1.52969       -0.28045
N         -2.63218       -2.61275       -0.35625
C         -1.25759       -0.73062       -0.06507
C          0.02563       -1.35758        0.19405
C          1.38734       -0.84304        0.11143
H          2.00767       -3.45705        1.18489
H          3.61061       -3.22331        0.89095
H          4.43947       -1.17700       -0.06937
H          3.86773        1.22889       -0.32713
H          0.79108        3.36161       -0.50915
H          1.90520        2.34418       -1.13686
H         -0.96293        3.57496        0.78381
H         -1.86675        2.27413        1.18610
H         -3.80717        1.33076       -0.33287
H         -4.53767       -1.12772       -0.03484
H         -3.34920       -3.28689       -0.61722
H         -1.91233       -2.65263       -1.07536
H         -0.02616       -2.43669        0.30367
