25
Coordinates from ORCA-job ./opt_b97-3c_parallel
N          4.33232       -0.56229        0.38942
C          3.22881       -0.62705        0.68010
C          1.92510       -0.24029        0.22640
C          1.20231       -1.34824       -0.35067
N          1.36022       -1.83017       -1.33356
C          0.25421       -2.20948        0.30798
C         -1.10373       -1.73129        0.40762
N         -2.05647       -2.46299        0.97503
C         -3.17684       -1.74306        0.88831
N         -2.97737       -0.52251        0.26963
C         -1.63412       -0.48513       -0.06926
C         -0.91707        0.48052       -0.72183
C         -1.12607        0.62347       -1.79989
N         -1.53755        0.93638       -2.82170
C         -0.00178        1.33655       -0.17060
N         -0.05848        2.69227        0.12109
C          1.07615        3.15022        0.64451
C          1.90855        2.11784        0.73133
C          1.31303        1.00327        0.25998
H          1.30626       -2.82196       -1.56005
H          2.31261       -1.53420       -1.54401
H          0.50283       -3.18070        0.72756
H         -4.12120       -2.14710        1.28401
H          1.23613        4.20179        0.92650
H          2.92638        2.17718        1.11005
