32
Coordinates from ORCA-job ./opt_b97-3c_parallel
N         -5.31963       -1.27665       -1.01379
C         -4.18978       -1.20089       -1.16454
C         -3.21166       -0.31800       -0.59926
C         -3.59298        0.94146       -0.22755
N         -4.33050        1.76062       -0.12656
N         -2.48131        1.55374        0.28845
C         -1.42536        0.64728        0.21061
C         -0.07760        1.13531        0.46091
C          0.01878        2.49579        0.91401
N          0.03652        3.57656        1.28586
C          1.12578        0.33398        0.16180
C          2.41338        0.95752       -0.09146
C          2.69506        2.34690       -0.32591
N          2.93946        3.44291       -0.53603
C          3.50780        0.14395       -0.29744
N          4.81924        0.43529       -0.42573
C          2.85485       -1.05086       -0.11876
C          3.71609       -2.19568       -0.23475
N          3.76044       -3.03176       -1.01313
C          1.45006       -1.00922        0.14495
C          0.82564       -2.27228        0.50523
C         -0.58300       -2.43032        0.64403
N         -1.30927       -3.21929        0.89081
N         -1.43009       -1.63954        0.10823
C         -1.89916       -0.52419       -0.29397
H         -5.21701        1.34132       -0.41340
H         -4.48244        2.76964       -0.12572
H          5.45666       -0.23437       -0.85466
H          5.11602        1.37221       -0.69586
H          1.43747       -3.15618        0.65588
H         -2.11058       -3.79704        1.14023
H         -0.48547       -3.79563        1.05993
