33
Coordinates from ORCA-job ./opt_b97-3c_parallel
N          1.24209       -4.05183       -0.87200
C          0.94474       -2.96941       -0.66012
C          0.61925       -1.60060       -0.36168
C         -0.78230       -1.20385       -0.50554
C         -1.76240       -2.08407       -0.89864
C         -2.91855       -1.56862       -0.36685
N         -3.79910       -2.19898       -0.58598
C         -2.75390       -0.35634        0.26265
C         -3.78194        0.48440        0.80098
N         -4.62300        1.14616        1.20039
C         -1.35292       -0.08087        0.16902
C         -0.69103        1.13472        0.55253
C         -1.27833        2.06374        1.48057
N         -1.69805        2.81262        2.23519
C         -0.03624        1.62164       -0.63904
N         -0.47285        2.50566       -1.15307
C          1.34512        1.62505       -0.56024
C          2.24040        2.62173       -1.10274
N          3.18924        3.02735       -1.59398
C          2.00252        0.53922        0.14176
C          3.34386        0.69157        0.61040
C          3.76329       -0.61127        1.01336
N          4.65304       -1.12696        1.41540
N          2.77694       -1.48903        0.76485
C          1.67540       -0.79682        0.25985
H         -1.60439       -3.16053       -0.97182
H         -4.07785       -3.11625       -0.93108
H         -4.64465       -1.75757       -0.22588
H         -1.43027        2.81673       -0.98700
H          0.01496        3.30694       -1.55425
H          3.95024        1.59213        0.63819
H          5.54791       -0.66074        1.56759
H          4.84178       -2.12636        1.49831
