27
Coordinates from ORCA-job ./opt_b97-3c_parallel
N          1.05710       -4.09688        1.29109
C          0.96329       -3.05359        0.83831
C          0.79693       -1.75087        0.25850
C          1.74960       -1.25943       -0.69642
N          2.72253       -1.66398       -1.03854
N          2.64929       -0.43196       -0.16682
C          2.34572        0.74612        0.40198
N          3.32793        1.56311        0.90723
C          2.80296        2.84213        1.01128
N          1.51366        2.83715        0.49790
C          1.18850        1.54579        0.14093
C         -0.10771        1.26970       -0.48696
C         -0.82328        2.41020       -0.98439
N         -1.39440        3.30054       -1.41312
C         -0.85602        0.01879       -0.29083
C         -2.23832        0.03717       -0.37688
C         -3.48004        0.70665       -0.64474
N         -3.89973        1.35241        0.20116
C         -2.69263       -1.23186        0.15363
N         -3.38097       -2.03832        0.48528
N         -1.58142       -1.91156        0.47606
C         -0.47403       -1.21205        0.18694
H          3.66230       -1.57015       -1.42843
H          2.48016       -2.64789       -1.16011
H          3.28861        3.76575        1.36687
H         -4.24955       -1.50299        0.56151
H         -3.63781       -2.99588        0.73236
