23
Coordinates from ORCA-job ./opt_b97-3c_parallel
N          0.22241       -3.13695       -0.05080
C         -0.14121       -2.09530       -0.00212
C         -1.52525       -1.67347        0.10856
C         -2.00685       -0.30297        0.15702
N         -3.29352       -0.16194        0.29789
C         -3.33325        1.10652        0.13424
C         -2.21208        1.75603       -0.06208
C         -1.07494        0.80450       -0.03722
C          0.04534        1.71375       -0.12868
C          1.33126        1.08503       -0.05565
N          2.49477        1.82722       -0.04731
C          3.56204        1.04619        0.04659
C          3.02520       -0.16754        0.08022
C          1.71063       -0.20787        0.02066
N          0.86339       -1.21393        0.00863
H         -0.59737       -3.69280       -0.29424
H          1.02165       -3.75993       -0.16160
H         -2.27554       -2.45763        0.17647
H         -4.36878        1.47514        0.19768
H         -2.24787        2.83726       -0.18845
H         -0.00638        2.79762       -0.20254
H          4.46720        1.67266        0.05903
H          3.63638       -1.06394        0.15162
