21
Coordinates from ORCA-job ./opt_b97-3c_parallel
C          3.46410       -1.00444        0.00125
C          3.27519        0.33659        0.00309
C          1.87395        0.56975        0.00393
N          1.36582        1.85621        0.00624
C          0.06004        2.35155        0.00752
C         -1.31153        1.87110        0.00711
C         -1.88651        0.54208        0.00507
C         -3.21413        0.30153        0.00510
C         -3.45977       -1.00484        0.00294
N         -2.28034       -1.62025        0.00149
C         -1.23864       -0.70990        0.00273
N          0.02277       -0.91405        0.00201
C          1.26989       -0.65112        0.00229
C          2.27023       -1.58681        0.00067
H          4.42575       -1.51292       -0.00029
H          4.03144        1.11581        0.00428
H          0.19351        3.44464        0.00931
H         -2.04451        2.67281        0.00864
H         -3.98316        1.07135        0.00674
H         -4.45213       -1.48143        0.00248
H          2.11347       -2.66360       -0.00145
