28
Coordinates from ORCA-job ./opt_b97-3c_parallel
N          4.64353       -1.55172       -0.46473
C          3.85418       -0.73782       -0.60922
C          2.66211       -0.00918       -0.27977
C          1.60998       -0.32235       -0.09927
C          1.04764       -1.61273       -0.00032
C         -0.28159       -2.07248        0.12290
N         -0.31407       -3.43994        0.27022
C         -1.53556       -1.40697       -0.00758
C         -2.72401       -2.24209       -0.07577
N         -3.65101       -2.91016       -0.12386
C         -1.77812       -0.01794       -0.13579
N         -2.97767        0.52321       -0.41717
C         -2.53703        1.52582       -0.20767
N         -3.72767        2.19710       -0.24657
N         -1.69495        2.20779        0.06120
C         -0.92283        1.11942        0.20216
N         -0.00653        0.93548        1.16277
C          1.00950        0.98601        0.29131
N          1.81382        2.04958        0.12622
C          2.67591        1.41754       -0.12327
N          3.80791        2.17425       -0.26200
H          1.78438       -2.41393       -0.06009
H          0.54055       -3.97248        0.14904
H         -1.19971       -3.92597        0.16880
H         -4.59722        1.67733       -0.29986
H         -3.76880        3.15920        0.06995
H          3.78681        3.15405       -0.00135
H          4.71238        1.71933       -0.32636
