31
Coordinates from ORCA-job ./opt_b97-3c_parallel
N          1.81749        3.06228       -2.15998
C          1.59174        2.24219       -1.39838
C          1.27357        1.19189       -0.47817
C          2.04855       -0.01279       -0.39135
C          3.28769       -0.15648       -0.93647
C          3.46140       -1.17679       -0.03087
N          4.47319       -1.62536       -0.08706
C          2.72408       -1.82068        0.93391
C          1.71642       -0.96184        0.61860
N          0.49925       -1.54826        0.74502
C         -0.75288       -1.30063        0.28874
N         -1.69422       -2.29717        0.26711
C         -2.85838       -1.71640       -0.21256
N         -3.46183       -2.65040       -0.15138
C         -2.73638       -0.37443       -0.52669
C         -3.47602        0.04209       -1.24183
N         -4.58549        0.30483       -1.30804
C         -1.44531       -0.11972       -0.13906
C         -0.89400        1.20388        0.02195
C         -1.64560        2.40556       -0.18375
N         -2.28431        3.33959       -0.33227
C          0.34978        1.50420        0.47361
N          0.82495        1.96683        1.64255
H          3.98084        0.68398       -0.98421
H          5.22190       -1.16733       -0.60700
H          4.91599       -2.39702        0.41230
H          2.58701       -2.90360        0.92113
H         -4.39430       -2.29188       -0.37578
H         -3.56471       -3.66778       -0.15020
H          1.76005        2.37668        1.67288
H          0.23790        2.56647        2.22354
