32
Coordinates from ORCA-job ./opt_b97-3c_parallel
N         -2.86261       -2.94408       -1.90431
C         -2.26399       -2.18699       -1.29164
C         -1.51762       -1.25324       -0.48352
C         -1.97326        0.12133       -0.43256
C         -3.11017        0.55806       -1.05481
C         -3.43771        1.38454       -0.00958
N         -4.45809        1.81221       -0.01801
C         -2.63930        1.75995        1.04309
C         -1.64867        0.87074        0.72685
N         -0.63641        1.78407        0.50463
C          0.58712        1.33112        0.05788
C          1.62250        2.25988       -0.24878
C          2.88491        1.73243       -0.39126
N          3.80019        2.71331       -0.26351
C          2.57277        0.42114       -0.10190
C          3.86589       -0.18997       -0.23807
N          4.32886       -0.96642       -0.93768
C          1.19395        0.12120        0.18316
C          0.72561       -1.15333        0.71425
C          1.80393       -1.85119        1.37667
N          2.51776       -2.65952        1.75657
C         -0.54191       -1.72019        0.50140
N         -0.65860       -2.78268        0.81546
H         -3.84675       -0.12352       -1.47882
H         -5.20796        1.30822       -0.48758
H         -4.84470        2.70857        0.27220
H         -2.49719        2.80925        1.31935
H          1.39960        3.32396       -0.26393
H          4.78940        2.50691       -0.39353
H          3.61914        3.64425       -0.63344
H         -1.42516       -3.41411        0.58806
H          0.16816       -3.36386        0.94793
