30
Coordinates from ORCA-job ./opt_b97-3c_parallel
N         -3.48979        3.03540        0.35008
C         -3.06754        1.97900        0.25624
C         -2.59782        0.63348        0.13042
C         -3.62827       -0.23508       -0.07680
N         -4.69178       -0.51805       -0.21390
N         -3.20493       -1.48734       -0.19352
C         -1.82690       -1.36359       -0.04834
C         -1.18387       -2.56823       -0.15989
C          0.15028       -2.70306        0.09781
N          0.69574       -3.56367        0.51532
N          1.16689       -1.90588        0.00507
C          1.60146       -0.67862        0.00263
C          2.88934       -0.20349       -0.08178
C          4.01612       -1.08278       -0.18729
N          4.95038       -1.60780       -0.58359
C          2.84529        1.22892       -0.04304
N          3.73547        1.88435       -0.09602
C          1.52863        1.61380        0.06909
C          0.97053        2.93291        0.14985
N          0.48429        3.96486        0.21832
C          0.69796        0.43960        0.09804
N         -0.41118        0.38760        0.17512
C         -1.42213       -0.05933        0.14839
H         -5.38426       -1.23018       -0.44747
H         -5.20966        0.35813       -0.13053
H         -1.72814       -3.43794       -0.52674
H          0.24429       -4.46375        0.66914
H          1.69886       -3.74665        0.50878
H          4.66540        1.51509       -0.29279
H          3.83085        2.89754       -0.04009
