31
Coordinates from ORCA-job ./opt_b97-3c_parallel
N          4.34259        1.25487       -0.16964
C          3.29603        0.46147        0.10430
C          3.45377       -0.87039        0.39344
C          2.48418       -1.82691        0.23592
C          1.44278       -0.97199        0.01852
C          0.05294       -1.42852       -0.16348
N         -0.04256       -2.53279       -0.19676
C         -1.21503       -0.68193       -0.14836
C         -2.46598       -1.27451       -0.19256
N         -2.99540       -2.24275       -0.28387
C         -3.40004       -0.27853       -0.03715
C         -2.83742        0.91985        0.07928
N         -3.52299        2.04059        0.35599
C         -1.50214        0.71351       -0.05020
C         -0.50744        1.70088       -0.31925
N          0.39886        2.28351       -0.54628
C          1.10781        1.47181       -0.32673
C          1.95085        0.35810       -0.04548
H          5.25535        1.06037        0.23706
H          4.22278        2.26483       -0.21597
H          4.40727       -1.19143        0.80250
H          2.39951       -2.62813        0.96731
H          0.71830       -3.19440       -0.05901
H         -0.78842       -2.79775        0.44473
H         -2.16059       -2.46517       -0.82474
H         -3.79225       -2.46847       -0.87677
H         -4.47608       -0.43621        0.06028
H         -4.48690        1.97268        0.67715
H         -3.07630        2.77929        0.89683
H         -0.98695        2.69379       -0.31697
H          1.78170        2.34395       -0.38522
