23
Coordinates from ORCA-job ./opt_b97-3c_parallel
C          0.04631       -2.38326        0.00097
C         -1.16923       -1.75320        0.00091
C         -1.84696       -0.56802        0.00223
C         -3.24668       -0.31781        0.00260
C         -3.46941        1.01574        0.00293
C         -2.28314        1.60796        0.00284
C         -1.27730        0.67785        0.00247
N         -0.05344        1.06855        0.00197
C          1.15071        0.61510        0.00160
C          2.21344        1.57268        0.00157
C          3.41611        0.95340        0.00114
C          3.18743       -0.34639        0.00083
C          1.84064       -0.57923        0.00114
C          1.40722       -1.89406        0.00087
H          0.01372       -3.46862        0.00061
H         -1.92156       -2.53900       -0.00072
H         -4.01182       -1.08704        0.00203
H         -4.43879        1.50772        0.00289
H         -2.13267        2.68539        0.00273
H          2.04844        2.64595        0.00172
H          4.38984        1.43668        0.00100
H          3.95949       -1.11259        0.00051
H          2.15291       -2.68324        0.00049
