23
Coordinates from ORCA-job ./opt_b97-3c_parallel
N          0.12620       -2.82155        0.23564
C          0.09185       -1.79938       -0.18826
N         -1.15713       -1.61044        0.37138
C         -1.82511       -0.42319        0.08308
C         -3.16741       -0.21178        0.03137
C         -3.36738        1.07285       -0.22563
C         -2.22675        1.73969       -0.33481
C         -1.20387        0.86440       -0.13112
C         -0.01417        1.39635        0.31384
C          1.19651        0.96094       -0.04369
C          2.31747        1.59427        0.27740
C          3.48685        1.10866       -0.11206
N          2.68149        0.17801       -0.57960
C          1.36103       -0.18000       -0.76286
N          1.02682       -1.40653       -0.99682
H         -0.65168       -3.47069        0.09735
H          0.86407       -3.38254        0.66331
H         -3.94374       -0.96384        0.15961
H         -4.35108        1.52643       -0.33415
H         -2.13421        2.80497       -0.54100
H         -0.07056        2.30496        0.91324
H          2.28738        2.52145        0.85001
H          4.51760        1.46442        0.04605
