23
Coordinates from ORCA-job ./opt_b97-3c_parallel
N         -4.25221        0.78572       -0.31952
C         -3.15568        0.66704       -0.36950
C         -1.94001        1.28184       -0.40291
C         -1.02983        0.40886        0.10909
N          0.08282        0.83791        0.60994
C          1.31811        0.58972        0.31051
C          2.23162        1.68272        0.39453
C          3.51918        1.22331       -0.02548
N          3.43116       -0.11179       -0.36671
C          2.15085       -0.41249       -0.13314
C          1.80219       -1.78746       -0.43765
C          0.51277       -2.35947       -0.12914
C         -0.51099       -1.81961        0.58880
C         -1.38062       -0.91828        0.05349
N         -2.46323       -0.42371       -0.45876
H         -4.73861        1.68206       -0.32647
H         -4.97768        0.07021       -0.28012
H         -1.84373        2.35626       -0.25304
H          1.99375        2.69543        0.70527
H          4.52538        1.65170       -0.14859
H          2.55057       -2.43132       -0.89169
H          0.39536       -3.39707       -0.42629
H         -0.63206       -2.11492        1.62861
