27
Coordinates from ORCA-job ./opt_b97-3c_parallel
N          4.33373        0.68748        0.79832
C          3.38454        0.13451        0.48362
C          2.21975       -0.60250        0.09362
C          2.21238       -1.93592       -0.25382
N          2.98276       -2.72567       -0.32461
C          0.98412       -2.42376       -0.62732
C          0.17591       -1.32895       -0.47948
N         -1.09164       -1.78962       -0.10824
C         -2.25564       -1.06932        0.11893
N         -3.45254       -1.47243        0.64475
C         -4.30761       -0.39880        0.48439
C         -3.76293        0.69152       -0.14123
C         -2.49967        0.23356       -0.38254
N         -1.63007        0.91547       -1.05679
C         -0.81485        1.67066       -0.39511
N         -1.27871        2.67260       -0.49283
C          0.42456        1.23178        0.19911
C          1.24269        2.22700        0.82928
N          1.85764        3.04656        1.33367
C          0.86702       -0.14183       -0.04140
H          3.82483       -2.34706        0.10949
H          3.24509       -3.63471       -0.70507
H          0.65968       -3.43412       -0.36679
H         -5.31623       -0.61578        0.86919
H         -3.93428        1.69339        0.24745
H         -2.00021        3.38433       -0.60008
H         -0.39441        3.13541       -0.70204
