25
Coordinates from ORCA-job ./opt_b97-3c_parallel
N          4.63126        0.31902       -0.01002
C          3.48837        0.32455       -0.00814
C          2.03701        0.38096       -0.00475
C          1.38954        1.68370       -0.01113
N          2.07209        2.57149       -0.02144
C          0.07061        2.06817        0.00230
C         -1.25094        1.72950       -0.00138
N         -2.13602        2.70261        0.00128
C         -3.27846        2.11925        0.00169
C         -3.21368        0.81689       -0.00190
C         -1.88911        0.50076       -0.00229
C         -1.32645       -0.84446       -0.00153
C         -2.41375       -1.80038       -0.00337
N         -3.26729       -2.56222       -0.00202
C         -0.02628       -1.36842        0.00296
N          0.07328       -2.75282        0.00761
C          1.38589       -3.16306        0.01106
N          2.14890       -2.02101        0.00859
C          1.33815       -0.90006        0.00370
H          3.08089        2.42614       -0.01746
H          1.93559        3.58112       -0.01554
H          0.02940        3.16870        0.01598
H         -4.22165        2.68573        0.00458
H         -4.07343        0.15060       -0.00102
H          1.80806       -4.17921        0.01459
