34
Coordinates from ORCA-job ./opt_b97-3c_parallel
N         -1.79794        3.82457       -1.15275
C         -1.52366        2.76963       -0.80742
C         -1.14084        1.43416       -0.40873
C         -2.24847        0.51459       -0.53861
N         -2.97235        0.45396       -1.38087
C         -2.37132       -0.68685        0.25265
C         -3.62808       -1.19870        0.70510
C         -3.48561       -2.53973        0.86607
C         -2.24721       -2.87684        0.51590
C         -1.53259       -1.76480        0.16386
C         -0.24901       -1.89638       -0.32333
C          0.80670       -0.89516       -0.29023
C          2.08829       -1.25991       -0.60143
N          2.49497       -2.19239       -1.04205
C          2.83528       -0.12879       -0.13451
C          4.27106       -0.11280       -0.24475
N          5.40874       -0.17769       -0.33695
C          2.16152        0.90347        0.47464
N          2.76679        2.03310        0.89552
C          0.87417        0.41646        0.32500
C         -0.31990        1.13257        0.74821
N         -0.13581        1.99661        1.42025
H         -3.23031        1.43654       -1.29403
H         -3.84516       -0.07021       -1.34748
H         -4.56398       -0.65442        0.63349
H         -4.26311       -3.22834        1.18066
H         -1.85939       -3.89213        0.52151
H          0.08846       -2.89873       -0.57010
H          2.04512       -2.97710       -1.50921
H          3.47767       -2.43889       -0.92833
H          3.74627        2.19812        0.67024
H          2.27789        2.92451        0.84419
H         -0.55821        2.91355        1.28515
H          0.73507        2.14194        1.92799
