24
Coordinates from ORCA-job ./opt_b97-3c_parallel
N          4.56206        1.29141       -0.37240
C          3.36912        0.72702       -0.13370
C          3.11759       -0.57066       -0.21835
C          1.80545       -0.83410        0.05206
N          1.34974       -2.10272        0.01284
C         -0.00326       -2.23899        0.24978
N         -1.20907       -1.84150        0.49857
C         -1.88286       -0.74961        0.31212
C         -3.21408       -0.73970        0.01993
C         -3.44752        0.61072       -0.05910
N         -4.32093        1.25508       -0.25106
N         -2.33916        1.33830        0.14927
C         -1.29923        0.54794        0.39106
N         -0.04433        0.74980        0.64527
C          1.14900        0.35097        0.33220
C          2.19549        1.31441        0.20730
H          4.81926        2.17620        0.06306
H          5.40274        0.71999       -0.44905
H          3.85463       -1.32599       -0.48655
H          0.07365       -3.33408        0.15574
H         -3.62742       -1.42015       -0.72246
H         -5.18310        0.81209       -0.56721
H         -4.55805        2.22254       -0.03490
H          2.04116        2.37784        0.36610
