25
Coordinates from ORCA-job ./opt_b97-3c_parallel
N          4.43431        1.68376        0.34011
C          3.57782        0.95341        0.15076
C          2.47258        0.07812       -0.06112
C          2.59828       -1.35352       -0.02565
N          3.27230       -2.21650        0.10585
N          1.39878       -1.93745       -0.21362
C          0.53039       -0.87715       -0.37331
N         -0.74832       -0.98421       -0.54728
C         -1.96448       -0.78354       -0.14046
C         -2.89594       -1.74888        0.09380
C         -4.02720       -1.14997        0.43729
C         -3.90929        0.17093        0.44406
C         -2.63267        0.47818        0.09068
N         -2.07723        1.75312       -0.07494
C         -0.72164        1.92622       -0.29696
N         -0.71420        3.02445       -0.42528
N          0.49875        1.50418       -0.42497
C          1.16469        0.39703       -0.29779
H          4.14402       -1.84809        0.48900
H          3.47671       -3.17606       -0.17520
H         -2.74563       -2.82392        0.00977
H         -4.94603       -1.67964        0.68516
H         -4.69414        0.88010        0.70079
H          0.02345        3.64607       -0.76302
H         -1.52492        3.63656       -0.30708
