23
Coordinates from ORCA-job ./opt_b97-3c_parallel
N         -3.01304        2.05571        0.03284
C         -2.40522        1.13479        0.01696
N         -3.27189        0.05308        0.02043
C         -2.73470       -1.16548        0.00766
C         -1.40429       -0.86165        0.00213
C         -0.35172       -1.82276        0.01726
N          0.58082       -2.40132        0.02820
C          1.40186       -1.66850        0.01128
C          2.04511       -0.39067       -0.01481
C          3.45921       -0.22546       -0.02627
N          3.02657        0.81330       -0.04031
C          2.52073        1.81735       -0.05212
C          1.44758        0.88294       -0.02828
C          0.07573        1.34733       -0.01790
C         -1.12419        0.53364       -0.00306
H         -3.96960        2.40180       -0.03406
H         -2.45275        2.83124        0.38387
H         -3.25548       -2.13555        0.00145
H         -0.74633       -2.85243        0.02688
H          2.16780       -2.46100        0.02080
H          4.44491       -0.71392       -0.02482
H          2.82984        2.87347       -0.07119
H         -0.06080        2.42434       -0.02720
