36
Coordinates from ORCA-job ./opt_b97-3c_parallel
N          5.75158        0.42598        0.61610
C          4.62430        0.32405        0.45605
C          3.20971        0.16779        0.22243
C          2.59790       -1.12616        0.38676
N          3.07065       -2.09208        0.65498
C          1.22932       -0.90415        0.03363
C          0.41145       -2.04397       -0.21040
N         -0.61346       -1.97505       -0.98647
C         -1.77353       -1.78321       -0.47388
N         -2.23257       -2.78332       -0.59667
C         -2.24892       -0.50810       -0.01892
C         -3.55707       -0.33287        0.35340
N         -4.49349       -0.90347        0.49566
C         -3.72083        1.00910        0.52569
C         -2.61273        1.69833        0.26690
N         -2.60697        3.03100        0.46071
C         -1.62664        0.79276       -0.07733
C         -0.23971        1.13021       -0.47185
N         -0.15167        2.20152       -0.73557
C          0.95381        0.40864       -0.25664
C          2.24155        1.08096       -0.18099
N          2.64948        2.10587       -0.31338
H          2.79430       -2.25293        1.62178
H          4.08618       -2.01177        0.64686
H          0.60211       -3.12071       -0.08737
H         -2.61587       -2.20830       -1.34502
H         -1.89498       -3.64208       -1.02670
H         -4.11942       -1.83217        0.30624
H         -5.49020       -0.93804        0.29097
H         -4.64788        1.47699        0.86060
H         -3.36077        3.46869        0.98732
H         -1.74024        3.50020        0.71632
H          0.33870        2.63634        0.04430
H         -0.98642        2.75811       -0.91401
H          1.97014        2.19168       -1.06835
H          3.55251        2.37988       -0.69709
