27
Coordinates from ORCA-job ./opt_b97-3c_parallel
N          3.56337       -1.20002       -0.50935
C          2.61282       -0.66411       -0.32503
N          2.99131        0.66493       -0.20493
C          1.85755        1.41169        0.08463
N          2.28351        2.43272        0.14480
C          0.76413        0.57687        0.13566
C         -0.48382        1.16306        0.33635
C         -1.83529        0.66020        0.13582
C         -2.91671        1.48613        0.08772
C         -3.96768        0.76991       -0.29484
C         -3.65520       -0.50222       -0.50607
C         -2.33390       -0.63823       -0.22182
C         -1.66147       -1.88436       -0.04643
C         -0.54907       -1.98597        0.70962
C          0.60674       -1.93928        0.01460
C          1.20230       -0.70928       -0.08585
H          3.36695       -2.20175       -0.52195
H          4.58113       -1.12576       -0.46574
H          1.49301        3.06568        0.27490
H          3.10968        3.03318        0.14317
H         -0.49043        2.23420        0.52208
H         -2.92616        2.54877        0.31893
H         -4.96955        1.17773       -0.41329
H         -4.34303       -1.29247       -0.80009
H         -2.22585       -2.77744       -0.29889
H         -0.59200       -2.49814        1.66838
H          1.14661       -2.85684       -0.20125
