29
Coordinates from ORCA-job ./opt_b97-3c_parallel
N         -4.00284       -2.45089        0.61302
C         -3.24907       -1.62647        0.37842
C         -2.33800       -0.57314        0.05120
C         -3.03943        0.54326       -0.30201
N         -3.97703        1.11427       -0.46665
N         -2.23432        1.54531       -0.65596
C         -0.94353        1.01938       -0.57454
C         -0.18590        2.15491       -0.64366
C          0.75130        2.33329        0.33381
N          1.22046        3.19273        0.83563
N          1.44079        1.40624        0.92454
C          2.03338        0.38445        0.38822
C          3.36854        0.38599        0.10946
C          3.54289       -0.82525       -0.51272
N          4.33386       -1.47767       -0.92785
N          2.36813       -1.47309       -0.59472
C          1.35181       -0.79548       -0.03787
C          0.01583       -1.09267        0.19295
C         -0.03988       -2.11002        0.63699
N         -0.18061       -2.69222        1.61023
C         -1.01228       -0.27322       -0.10858
H         -4.72759        0.43473       -0.32296
H         -4.45191        2.00268       -0.63605
H         -0.17700        2.77667       -1.53825
H          2.18804        3.49310        0.95267
H          0.64786        3.95442        1.19908
H          3.86927        1.28338       -0.25132
H          5.21794       -1.17404       -1.33996
H          4.47556       -2.45981       -0.68531
