29
Coordinates from ORCA-job ./opt_b97-3c_parallel
N         -4.44702        1.03664       -0.00077
C         -3.48322        0.49988       -0.06459
N         -3.13885       -0.73105        0.17608
C         -2.52484       -1.85606        0.37249
C         -1.49258       -0.82681        0.08373
C         -0.00512       -1.12903        0.09868
N          0.14728       -2.45195        0.31639
C          1.18965       -0.43628        0.04190
C          2.33963       -1.01663       -0.43673
N          2.94748       -1.83743       -0.87240
N          3.39383       -0.21179       -0.30752
C          2.87406        0.94134        0.27575
N          3.70441        1.65165        0.47180
C          1.50950        0.83375        0.44515
C          0.71019        1.91627        0.21032
N         -0.31660        2.04968       -0.17041
C         -1.26280        1.58507       -0.49496
C         -2.04692        0.42506       -0.15526
H         -4.58980        2.04471       -0.07792
H         -5.38225        0.64209        0.11246
H         -2.88337       -2.86593        0.62661
H         -0.63676       -3.09384        0.19947
H          0.69714       -2.79283        1.10573
H          3.87566       -2.26237       -0.94388
H          2.30295       -2.57201       -1.17087
H          4.72545        1.59589        0.46668
H          3.50401        2.59743        0.80503
H          0.86741        3.00491        0.26985
H         -1.69708        2.32269       -1.18848
