33
Coordinates from ORCA-job ./opt_b97-3c_parallel
N          3.39299       -2.82913       -1.90033
C          2.68879       -2.16420       -1.29328
C          1.81489       -1.34179       -0.49209
C          2.06092        0.08442       -0.45099
C          3.10276        0.69151       -1.09573
C          3.36685        1.51191       -0.02747
N          4.31201        2.08550       -0.05811
C          2.57498        1.73166        1.07365
C          1.68294        0.74955        0.74263
N          0.57937        1.55813        0.55931
C         -0.58495        0.98884        0.07900
C         -1.71718        1.79336       -0.26616
C         -1.62556        3.22527       -0.33758
N         -1.58580        4.36549       -0.39931
C         -2.89414        1.09782       -0.45841
N         -4.08176        1.73262       -0.56355
C         -2.43336       -0.16632       -0.14658
C         -3.55515       -1.04952       -0.31243
N         -3.74167       -1.84628       -1.11080
C         -1.03703       -0.29017        0.17414
C         -0.41953       -1.49242        0.72689
C         -1.38235       -2.30402        1.43444
N         -1.98982       -3.13576        1.93070
C          0.89359       -1.93056        0.48087
N          1.14610       -2.96996        0.79260
H          3.89836        0.13499       -1.58908
H          5.18360        1.75460       -0.46753
H          4.43848        3.07567        0.14343
H          2.32525        2.73613        1.42943
H         -4.90650        1.23333       -0.89207
H         -4.12748        2.69088       -0.90645
H          2.03187       -3.46225        0.68601
H          0.45598       -3.66709        1.06958
