29
Coordinates from ORCA-job ./opt_b97-3c_parallel
N         -4.58979       -2.24680       -0.00308
C         -3.76486       -1.45637       -0.00226
C         -2.69629       -0.50110       -0.00101
C         -1.33042       -0.70240       -0.00002
C         -0.74271       -1.96387        0.00084
C          0.56578       -2.47336        0.00192
N          0.60601       -3.57912        0.00319
C          1.95417       -1.99665        0.00169
C          2.47892       -0.71517        0.00083
N          3.84370       -0.54003        0.00063
C          4.09276        0.82315        0.00029
N          5.14482        1.16102        0.00036
N          2.86801        1.47954        0.00030
C          1.85211        0.54807        0.00070
N          0.58403        0.69917        0.00148
C         -0.68554        0.56328        0.00037
C         -1.65597        1.53368       -0.00059
C         -1.43258        2.94860       -0.00073
N         -1.20283        4.06721       -0.00101
C         -2.95359        0.91522       -0.00125
N         -3.92298        1.44943       -0.00180
H         -1.50473       -2.74490        0.00091
H         -0.27445       -4.09586        0.00643
H          1.33362       -4.29447        0.00673
H          2.72238       -2.77429        0.00222
H          5.99766        0.59875        0.00097
H          5.46113        2.13220        0.00217
H         -4.18922        2.43362        0.00029
H         -4.79290        0.91700       -0.00010
