24
Coordinates from ORCA-job ./opt_b97-3c_parallel
N         -0.88020       -3.43788        0.05047
C         -0.65091       -2.08645        0.03861
C         -1.84120       -1.34157        0.04212
C         -2.15945        0.02705        0.02691
N         -3.44518        0.40407        0.03479
C         -3.05053        1.44621        0.00433
N         -2.30447        2.27430       -0.02648
C         -1.40442        1.28254       -0.00992
C         -0.03778        1.53646       -0.02054
C          1.16774        0.84653       -0.00776
N          2.34881        1.48139       -0.02209
C          2.81354        0.46813       -0.00184
N          4.15650        0.72411       -0.02510
N          2.80763       -0.64655        0.02065
C          1.46799       -0.58722        0.01924
C          0.71838       -1.77503        0.03221
H         -0.10645       -4.06927       -0.12696
H         -1.82134       -3.77797       -0.11551
H         -2.73424       -1.96650        0.06039
H         -4.00541        1.95423        0.00195
H          0.14468        2.61009       -0.04585
H          4.82209       -0.03413        0.07426
H          4.49427        1.67795        0.03669
H          1.35641       -2.65885        0.04169
