31
Coordinates from ORCA-job ./opt_b97-3c_parallel
N         -1.66119       -3.75229        0.78395
C         -1.34428       -2.68626        0.52323
C         -0.89143       -1.36007        0.20607
C         -1.88924       -0.33062        0.03243
C         -3.28265       -0.55096        0.24015
C         -3.95511        0.54602       -0.18860
N         -5.27827        0.75962       -0.20308
C         -3.04303        1.40364       -0.63798
C         -1.77277        0.90255       -0.52992
N         -0.75577        1.55625       -0.96360
C         -0.00767        2.04897       -0.03323
N         -0.28412        3.11794        0.06829
C          1.16073        1.37287        0.46310
C          2.18327        2.13634        1.12053
N          3.02293        2.70668        1.64378
C          1.41504        0.00163        0.04327
C          2.71092       -0.44022       -0.06746
C          4.11687       -0.15627       -0.05233
N          4.91876       -0.23980       -0.86202
C          2.56867       -1.84010       -0.30285
N          2.89527       -2.88299       -0.48933
N          1.26161       -2.27117       -0.28937
C          0.52724       -1.14983       -0.10027
H         -3.72252       -1.47318        0.60765
H         -5.92688       -0.02469       -0.15449
H         -5.67971        1.45638       -0.82896
H         -3.28032        2.37809       -1.06205
H          0.29065        3.81571        0.53899
H         -1.19984        3.54196       -0.07080
H          2.85101       -3.88987       -0.32729
H          3.79642       -2.70934       -0.93851
