37
Coordinates from ORCA-job ./opt_b97-3c_parallel
N         -2.68266        2.44209       -2.57776
C         -1.89767        1.97910       -1.88670
C         -1.16554        1.74345       -1.08391
C          0.09406        2.15170       -0.92662
N          0.75119        2.97399       -1.77455
C          0.85735        1.69125        0.11524
C          1.14326        2.74927        1.04251
N          1.34014        3.60990        1.76775
C          1.44453        0.36730        0.14185
C          2.64767       -0.01658        0.82374
C          3.44847        0.83185        1.65836
N          4.11070        1.47968        2.32727
C          3.09792       -1.28270        0.52866
N          4.28306       -1.84560        0.83545
C          2.08959       -1.73371       -0.29464
C          2.04449       -3.15460       -0.48653
N          2.01479       -4.29197       -0.59557
C          1.05850       -0.77747       -0.61664
C         -0.25875       -1.11978       -1.15657
C         -0.47890       -2.32348       -1.90124
N         -0.67630       -3.25845       -2.52770
C         -1.32537       -0.61083       -0.31986
C         -2.19583       -1.36952        0.42432
C         -2.29515       -2.78125        0.66095
N         -3.01698       -3.55930        0.23583
C         -3.05671       -0.42519        1.09499
N         -3.87155       -0.63223        1.81535
C         -2.73846        0.86029        0.69333
C         -3.31515        2.12243        1.05543
N         -3.74048        3.14170        1.34829
C         -1.66586        0.76940       -0.26028
H          1.53626        3.53117       -1.44114
H          0.22617        3.54329       -2.43716
H          4.38573       -2.85943        0.82479
H          4.83874       -1.48049        1.60761
H         -4.66696       -0.07177        2.11621
H         -4.22873       -1.56453        1.60959
