29
Coordinates from ORCA-job ./opt_b97-3c_parallel
N          0.00375       -3.50342       -1.44869
C         -0.02484       -2.46003       -0.98255
C         -0.06373       -1.13541       -0.43540
C         -1.37805       -0.52383       -0.23665
C         -2.54067       -1.20930       -0.44373
C         -3.24311       -0.30817        0.31440
N         -4.24227       -0.64935        0.64672
C         -2.91245        0.99875        0.57317
C         -1.58853        0.72856        0.41173
N         -1.37363        1.86845       -0.35398
C         -0.08785        2.35854       -0.27983
N         -0.03739        3.27543       -0.88916
N          0.83756        1.91918        0.50747
C          1.42268        0.77878        0.36682
C          2.82246        0.75212        0.64617
C          3.38430       -0.45622        0.42127
N          4.64816       -0.87569        0.56951
C          2.39267       -1.21581       -0.01041
C          1.20322       -0.53046       -0.02630
H         -2.61271       -2.28161       -0.25805
H         -5.00441       -0.29156        1.22192
H         -4.47273       -1.62373        0.45208
H         -3.27529        1.51328        1.46326
H          0.77478        3.85707       -1.09570
H         -0.85587        3.84363       -1.10687
H          3.38245        1.62391        0.97415
H          5.26705       -0.42937        1.24517
H          4.86354       -1.87269        0.56410
H          2.51667       -2.26346       -0.27950
