27
Coordinates from ORCA-job ./opt_b97-3c_parallel
N          2.62741        2.85241       -1.27138
C          1.82254        2.14857       -0.86874
C          0.85219        1.22456       -0.34643
C         -0.42264        1.71699        0.09614
N         -0.81414        2.75486        0.05540
C         -1.27456        0.97952        0.84936
C         -2.18623        0.31082        0.10307
N         -3.43207        0.64059       -0.13440
C         -4.00549       -0.46592       -0.47381
C         -3.21466       -1.50938       -0.50920
C         -2.00655       -1.02555       -0.16639
C         -0.82806       -1.80280        0.12513
C          0.54961       -1.33517        0.20632
C          1.46479       -2.33388        0.39016
C          2.76553       -1.77165        0.21247
N          3.85682       -1.93417        0.18362
N          2.59559       -0.43163       -0.08278
C          1.23232       -0.15395       -0.06228
H         -0.35621        3.65653       -0.07250
H         -1.80704        2.90668       -0.12344
H         -1.43756        1.17315        1.90957
H         -5.06782       -0.59935       -0.72966
H         -3.47805       -2.53320       -0.76675
H         -0.97778       -2.87870        0.15583
H          1.28126       -3.38821        0.57596
H          4.61764       -1.25982        0.08627
H          4.29716       -2.85389        0.20295
