30
Coordinates from ORCA-job ./opt_b97-3c_parallel
N         -4.73150        0.33474        0.94666
C         -3.73699       -0.11048        0.60194
C         -2.49969       -0.71078        0.19779
C         -2.26583       -2.05471        0.00710
N         -2.89779       -2.95729        0.09990
C         -0.98136       -2.36872       -0.35921
C         -0.40170       -1.13297       -0.36474
N          0.86140       -1.03825       -0.62911
C          2.02083       -0.64351       -0.20586
C          3.06073       -1.48701        0.02604
C          3.82432       -0.39602        0.36287
N          4.86949       -0.66044        0.62099
C          3.59032        0.95469        0.44284
C          2.31596        0.72623        0.03610
N          1.44083        1.67126       -0.16022
C          0.19807        1.95321       -0.42218
N          0.70850        2.70490       -1.06581
C         -0.94905        1.31276        0.00176
C         -1.59934        2.12051        0.40966
N         -2.42354        2.91275        0.33476
C         -1.26177       -0.03167       -0.05527
H         -3.10015       -3.83733       -0.37076
H         -3.78760       -2.59233        0.43636
H         -0.77219       -3.07806       -1.16019
H          3.37736       -2.19362       -0.73964
H          5.54693       -0.04000        1.06052
H          5.37447       -1.50346        0.35343
H          3.78836        1.51644        1.35453
H         -0.22379        3.09296       -1.19474
H          1.32820        3.49352       -0.88508
