31
Coordinates from ORCA-job ./opt_b97-3c_parallel
N         -4.37341        0.94356        0.20533
C         -3.41608        0.01927        0.02708
C         -3.65951       -1.28359       -0.09471
C         -2.55777       -2.01663       -0.22025
C         -1.49633       -1.17315       -0.17263
C         -0.11379       -1.60876       -0.17431
C          1.10688       -0.82677       -0.06038
C          2.35615       -1.52595        0.02740
N          2.66497       -2.58761        0.06033
C          3.47429       -0.72285        0.11596
C          2.87125        0.51367        0.09237
N          3.68621        1.25826        0.17321
C          1.44589        0.49443       -0.01163
C          0.64934        1.69170       -0.06264
N          1.00275        2.74577       -0.05788
N         -0.40959        1.98666       -0.12326
C         -1.28489        1.31921       -0.06690
C         -2.06043        0.12977       -0.04315
H         -5.34023        0.74211       -0.04068
H         -4.18725        1.92695        0.01955
H         -4.65943       -1.71221       -0.08516
H         -2.51717       -3.09618       -0.33823
H          0.01921       -2.68512       -0.22841
H          1.83878       -2.98984        0.49833
H          3.45754       -3.16214        0.33980
H          4.37011       -0.93696       -0.47356
H          3.20942        2.15615        0.24139
H          4.66856        1.42722        0.38035
H          1.48110        2.37697       -0.87771
H          0.62564        3.65435       -0.32070
H         -1.90463        2.22492        0.02061
