27
Coordinates from ORCA-job ./opt_b97-3c_parallel
N          5.14931        1.86230        0.37389
C          4.26455        1.15982        0.19805
C          3.15963        0.26910        0.02122
C          3.22782       -1.13542        0.30926
N          4.02775       -1.79961        0.68841
C          2.08527       -1.87155        0.10921
C          1.30044       -0.82525       -0.28965
N          0.05244       -1.05853       -0.53899
C         -1.19556       -0.84279       -0.26210
C         -2.06891       -1.86329       -0.01067
C         -3.25842       -1.20213        0.20911
N         -4.11625       -1.85407        0.45678
C         -3.19435        0.17281        0.10254
C         -4.17363        1.20604        0.25703
N         -4.97850        2.00640        0.39307
C         -1.83334        0.43358       -0.20533
N         -1.32296        1.66990       -0.38714
C         -0.02113        1.87189       -0.61504
N          1.21232        1.51981       -0.77433
C          1.87850        0.47882       -0.39079
H          4.50771       -2.63460        0.35813
H          4.74801       -1.12288        0.93530
H          2.09532       -2.79818       -0.46502
H         -2.02745       -2.78278       -0.59282
H         -4.81529       -1.20842        0.82131
H         -4.60023       -2.72775        0.25705
H          0.05738        2.96352       -0.72797
