21
Coordinates from ORCA-job ./opt_b97-3c_parallel
N          2.49222        3.09394        0.02421
C          2.30277        1.96929        0.01221
C          1.99007        0.57836       -0.01237
C          2.99009       -0.46084        0.01695
N          4.04690       -0.77172        0.06199
N          2.40995       -1.67788       -0.03602
C          1.06273       -1.38946       -0.08334
N          0.17349       -2.41611       -0.14320
C         -1.18290       -2.11168       -0.13507
N         -2.49310       -1.64194       -0.11517
C         -2.75965       -0.26621       -0.02848
N         -3.97132        0.38447        0.05985
C         -3.75285        1.75242        0.13850
N         -2.38069        1.96035        0.09019
C         -1.73591        0.74609       -0.01351
N         -0.45208        0.53027       -0.08863
C          0.74265        0.01152       -0.06243
H          4.68908       -0.00852       -0.15807
H          4.62905       -1.50685        0.46671
H         -1.39895       -3.19429       -0.20109
H         -4.55200        2.50948        0.22527
