31
Coordinates from ORCA-job ./opt_b97-3c_parallel
N          4.13255        0.74087       -1.00336
C          3.05293        0.03245       -0.64091
C          3.21437       -1.05670        0.17912
C          2.27167       -1.51124        1.06558
C          1.25641       -0.69977        0.65371
C         -0.15218       -1.11642        0.70765
N         -0.41966       -2.11663        1.10874
C         -1.17816       -0.52278       -0.13332
C         -2.21844       -1.18502       -0.72904
N         -2.74024       -2.12634       -0.98249
N         -3.09793       -0.37476       -1.33223
C         -2.64827        0.91506       -1.05997
C         -1.45341        0.86168       -0.26617
C         -0.92978        1.88140        0.46508
N         -1.76845        2.48426        1.32272
C          0.35533        2.17627        0.36977
C          1.16309        1.54608       -0.52680
C          1.76926        0.26816       -0.26855
H          4.04549        1.54545       -1.62135
H          5.01314        0.27268       -1.21345
H          4.14585       -1.61248        0.11129
H          2.14898       -2.58158        1.21937
H          0.46272       -2.54148        1.38979
H         -1.00799       -2.13153        1.94173
H         -1.97029       -2.67498       -0.59730
H         -3.56670       -2.72116       -0.94314
H         -3.26323        1.77575       -1.36556
H         -1.48950        3.35176        1.78150
H         -2.76569        2.54758        1.12964
H          0.77719        2.96727        0.98690
H          1.69338        2.17149       -1.23876
