22
Coordinates from ORCA-job ./opt_b97-3c_parallel
N          2.02829        1.82783        2.39385
C          1.53698        1.02470        1.74751
C          1.22601        0.74278        0.72359
C          0.59896        1.46051       -0.24666
N          0.71269        2.34363       -0.90388
N         -0.68609        1.69329       -0.52502
C         -1.71018        0.96251       -0.04499
N         -2.99436        1.44991       -0.02643
C         -3.82615        0.41503        0.37120
N         -3.08033       -0.74239        0.53173
C         -1.76306       -0.43305        0.28907
C         -0.86399       -1.48597        0.17378
C          0.50041       -1.48924       -0.04930
N          1.12766       -2.64736       -0.42308
C          2.47609       -2.35740       -0.53167
N          2.67996       -1.03310       -0.17393
C          1.46749       -0.46755        0.15364
H          1.72895        2.26251       -0.91217
H          0.50763        3.33382       -1.04145
H         -4.91336        0.32841        0.52588
H         -1.31602       -2.47536        0.20647
H          3.13832       -3.18173       -0.83978
