28
Coordinates from ORCA-job ./opt_b97-3c_parallel
N         -0.46581        3.74275        0.11353
C         -0.19915        2.62848        0.07674
C          0.09472        1.21896        0.02982
C         -1.04281        0.29630        0.00329
C         -2.37471        0.84639        0.02715
C         -3.32384       -0.12077        0.01109
N         -4.65520        0.03442        0.04345
C         -2.69797       -1.28475       -0.03137
C         -1.34125       -1.12426       -0.02945
C         -0.54723       -2.32828        0.00371
C          0.88060       -2.46529        0.03562
N          1.11711       -3.54754        0.08658
C          1.89067       -1.56717       -0.08763
C          2.17554       -0.24467       -0.03159
N          3.46381        0.13609       -0.05438
C          3.64972        1.44704       -0.03332
C          2.42628        1.95927        0.00797
C          1.47552        0.97955        0.00835
H         -2.60732        1.90520        0.06432
H         -5.07305        0.93341       -0.18952
H         -5.26931       -0.70186       -0.29889
H         -3.20579       -2.24713       -0.04779
H         -1.13937       -3.24493        0.02263
H          0.49522       -4.33804        0.24506
H          2.06806       -3.90040        0.17709
H          2.83560       -2.09871       -0.23338
H          4.63279        1.94044       -0.05307
H          2.26065        3.03359        0.02534
