32
Coordinates from ORCA-job ./opt_b97-3c_parallel
N          0.08416       -3.03712       -2.32228
C          0.20502       -2.51916       -1.31138
C          0.07676       -1.65986       -0.59748
C          1.20382       -1.36583        0.16509
N          1.62739       -2.10311        0.89182
C          1.91868       -0.10713        0.33772
C          3.20949        0.03102        0.95755
C          3.67358        1.29259        0.75893
C          2.78440        1.98184        0.05552
C          1.67870        1.20919       -0.17709
C          0.44422        1.68036       -0.76497
N          0.43368        2.64447       -1.31158
C         -0.82443        1.05510       -0.45186
C         -2.01929        1.55274       -0.89685
N         -2.91058        1.39198        0.05469
C         -2.29924        0.52968        0.93644
N         -3.09832        0.48548        1.70048
C         -1.14198        0.02660        0.40096
C         -1.10240       -1.19293       -0.14841
N         -2.25311       -1.89680       -0.30471
H          1.32655       -3.07455        0.82120
H          2.59808       -2.08648        0.58133
H          3.77471       -0.78812        1.39218
H          4.63365        1.66942        1.10459
H          2.90742        3.02189       -0.24000
H          0.00722        3.25742       -2.00494
H          1.43750        2.80486       -1.38508
H         -2.27864        2.20550       -1.74481
H         -3.08657       -0.45524        2.09409
H         -3.98742        0.90115        1.97800
H         -2.19155       -2.90331       -0.46544
H         -2.97862       -1.55478       -0.93229
