25
Coordinates from ORCA-job ./opt_b97-3c_parallel
N         -1.16436        2.94865        0.33569
C         -0.74379        1.95724        0.08750
C         -1.34243        1.15937       -0.82764
C         -2.00753        0.14535       -0.22944
N         -3.35664       -0.05559       -0.00860
C         -3.61541       -1.30395        0.37672
C         -2.45145       -1.94412        0.39684
C         -1.44398       -1.10256        0.08884
C         -0.07503       -1.48325       -0.15418
C          1.07854       -0.70321       -0.20229
N          2.22252       -1.36688       -0.41241
C          3.26252       -0.47503       -0.19233
N          4.33895       -0.69729       -0.25302
N          2.73341        0.74687        0.17670
C          1.37036        0.60793        0.12555
C          0.61192        1.77723        0.50608
H         -2.17313        3.07045        0.41830
H         -0.76397        3.88618        0.31484
H         -1.68496        1.55398       -1.78320
H         -4.57377       -1.79255        0.61484
H         -2.32958       -2.99302        0.65518
H          0.05540       -2.56152       -0.19878
H          4.75009       -1.62657       -0.16393
H          5.10654       -0.03284       -0.15726
H          1.14110        2.61619        0.95566
