32
Coordinates from ORCA-job ./opt_b97-3c_parallel
N         -5.38417       -0.12403        0.25182
C         -4.24608       -0.00811        0.24112
C         -2.81560        0.13206        0.18371
C         -2.09367        1.21169       -0.29751
N         -2.57567        2.13353       -0.67945
C         -0.70317        0.88903       -0.15723
C          0.25731        1.91632       -0.54340
C          1.63446        1.97118       -0.11317
C          2.08768        1.06549        0.90288
N          2.63909        1.40284        1.79575
C          2.55857       -0.05760        0.14768
C          3.60516       -0.04767       -0.72744
N          3.81723       -0.91817       -1.68737
C          2.64625       -1.38807       -1.13762
C          1.74584       -1.10124       -0.15494
C          0.53432       -1.28821        0.44748
N          0.72076       -2.32138        0.79936
C         -0.60118       -0.39308        0.34466
C         -1.91387       -0.91397        0.61721
N         -2.24991       -1.89910        0.99830
H         -3.58083        2.21274       -0.53214
H         -2.29862        2.92675       -1.25406
H         -0.09705        2.77454       -1.10495
H          2.25147        2.79817       -0.45185
H          2.92133        2.37692        1.88644
H          3.48726        0.84325        1.87026
H          4.48771        0.56121       -0.97531
H          2.26415       -2.31072       -1.60114
H          1.47628       -2.79077        1.29530
H         -0.00042       -2.11894        1.49006
H         -3.19474       -2.14398        0.70650
H         -1.61139       -2.43532        0.41326
