29
Coordinates from ORCA-job ./opt_b97-3c_parallel
N          1.10408       -3.45112        1.64673
C          0.81998       -2.48106        1.11311
C          0.49995       -1.24812        0.45283
C          1.43527       -0.17341        0.34391
C          2.82500       -0.29570        0.63371
C          3.48363        0.79539        0.14707
N          4.80141        1.03985        0.19073
C          2.59120        1.59817       -0.42957
C          1.33199        1.08433       -0.32114
C          0.15389        1.86604       -0.64632
C         -1.21687        1.69185       -0.20110
N         -2.04631        2.79970       -0.23516
C         -3.22005        2.44805        0.28587
C         -3.19019        1.16908        0.64863
C         -1.98902        0.63023        0.34729
C         -1.67610       -0.76605        0.29200
C         -2.62429       -1.77144        0.67911
N         -3.39988       -2.56327        0.95642
C         -0.59910       -1.28514       -0.34174
N         -0.53948       -1.92009       -1.52667
H          3.28443       -1.20035        1.02111
H          5.20879        1.75221       -0.41197
H          5.46321        0.26790        0.25376
H          2.83113        2.54258       -0.91232
H          0.37171        2.84632       -1.05910
H         -3.96470        3.25784        0.31990
H         -4.02607        0.63537        1.09745
H         -1.38775       -2.32772       -1.91598
H          0.21342       -2.58531       -1.69557
