30
Coordinates from ORCA-job ./opt_b97-3c_parallel
N          2.11098       -1.85219        1.19844
C          1.55368       -0.99549        0.76660
N          0.71402       -1.89385        0.23754
C         -0.47252       -1.63526       -0.35079
N         -0.65427       -2.68981       -0.62212
C         -1.26191       -0.44755       -0.08876
C         -2.63647       -0.47302       -0.10414
N         -3.58010       -1.04511       -0.24090
N         -3.20149        0.70965        0.20957
C         -2.15203        1.60553        0.43517
N         -2.61360        2.59400        0.63728
C         -0.90847        0.90050        0.25308
C          0.31255        1.67597        0.19337
C          1.59069        1.21166       -0.28590
C          2.62314        2.02797       -0.62398
C          3.70244        1.26849       -0.74422
C          3.43561       -0.00995       -0.51238
C          2.10605       -0.11885       -0.22503
H          2.96311       -1.35917        1.47524
H          2.28782       -2.82932        1.44201
H         -0.36199       -3.63762       -0.37907
H         -0.84902       -2.71322       -1.62412
H         -3.59631       -2.06600       -0.30784
H         -4.56809       -0.78326       -0.30510
H         -3.53155        3.02572        0.50236
H         -2.03404        3.35260        1.00457
H          0.21187        2.75290        0.30421
H          2.58033        3.10618       -0.77074
H          4.68871        1.64878       -1.00688
H          4.15645       -0.82418       -0.56077
