27
Coordinates from ORCA-job ./opt_b97-3c_parallel
N          4.59608       -1.74210        0.16278
C          3.76279       -0.96587        0.08409
C          2.74702        0.03605        0.01196
C          2.82254        1.40282       -0.00618
N          3.65549        2.13737        0.01952
N          1.63763        2.02686       -0.06032
C          0.69339        1.00570       -0.08173
N         -0.60686        1.10693       -0.11717
C         -1.85217        0.72811       -0.05226
C         -2.91829        1.58279       -0.01486
C         -4.03060        0.76608        0.04520
N         -5.13451        0.84178        0.10994
N         -3.70037       -0.58465        0.04241
C         -2.33278       -0.61654       -0.01650
C         -1.59579       -1.86343       -0.03256
C         -0.15453       -1.83884       -0.05284
N          0.29980       -2.84429       -0.07281
N          0.77631       -1.23557       -0.05942
C          1.34957       -0.27845       -0.04616
H          3.84644        3.13115       -0.13113
H          4.57755        1.72456        0.18764
H         -2.92869        2.49786       -0.60509
H         -5.79884        0.09640        0.33295
H         -5.71863        1.67107       -0.02248
H         -2.14003       -2.80705       -0.01720
H         -0.33362       -3.64336       -0.08904
H          1.23614       -3.24543       -0.13893
