26
Coordinates from ORCA-job ./opt_b97-3c_parallel
N          4.53988        1.42944        0.08014
C          3.46295        1.16311        0.07320
C          2.22032        1.74270        0.01935
C          1.24954        0.77600        0.01064
N          0.04068        1.36906        0.01007
C         -1.23629        0.81562        0.01953
N         -2.34349        1.63644        0.04731
C         -3.49249        0.84994        0.03389
N         -4.45935        1.39748        0.05674
C         -3.14433       -0.48187       -0.01297
C         -1.77685       -0.50334       -0.01346
N         -1.24584       -1.79385       -0.07766
C          0.02825       -2.36065       -0.07730
N         -0.22705       -3.44120       -0.12992
C          1.37259       -1.83590        0.00465
C          1.81794       -0.46788        0.02999
N          3.05358       -0.07199        0.06641
H          4.92359        2.34945       -0.15695
H          5.36757        0.88436        0.33930
H          2.08436        2.70347       -0.48090
H         -5.37847        0.99095        0.26145
H         -4.67682        2.38373       -0.12190
H         -3.72797       -1.23365        0.51924
H          0.53317       -4.11425       -0.27474
H         -1.05160       -4.04755       -0.07504
H          2.16933       -2.57728        0.02008
