28
Coordinates from ORCA-job ./opt_b97-3c_parallel
N          3.73965        2.84585        0.00714
C          3.10510        1.89520        0.01401
C          2.27796        0.72081        0.00713
C          0.83538        0.72280        0.00436
C          0.12246        1.92194        0.00727
C         -1.30816        2.24784        0.01143
N         -1.45056        3.34626        0.01130
C         -2.55893        1.61920        0.01921
C         -2.91850        0.22713        0.01740
N         -4.16569       -0.17615        0.02429
C         -4.04019       -1.46246        0.01031
C         -2.81009       -1.91745       -0.00347
C         -2.03817       -0.81380        0.00047
N         -0.78682       -1.04830       -0.01719
C          0.42744       -0.64601       -0.00552
C          1.55317       -1.43802       -0.00669
C          1.53544       -2.87326       -0.01668
N          1.92707       -3.94722       -0.02738
C          2.70957       -0.58660        0.00105
N          3.76360       -0.92760        0.00059
H          0.75547        2.80685        0.00851
H         -2.34065        3.83220       -0.08044
H         -0.72432        4.05740       -0.05059
H         -3.45433        2.24267        0.02757
H         -5.07061       -1.84843        0.01393
H         -2.49459       -2.95880       -0.01701
H          4.16878       -1.86201       -0.01469
H          4.53939       -0.26695       -0.00574
