24
Coordinates from ORCA-job ./opt_b97-3c_parallel
N         -4.49400        1.06685        0.04079
C         -3.40411        0.88493        0.10760
C         -2.18669        1.50550        0.18871
C         -1.22936        0.53212        0.11847
N         -0.03199        1.14145        0.15681
C          1.24979        0.60933        0.09604
C          2.21945        1.56885        0.13399
C          3.39115        0.85399        0.04205
N          4.47839        1.07040        0.01556
N          3.15356       -0.51270       -0.02974
C          1.79201       -0.70354        0.00256
N          1.29019       -1.99250       -0.04029
C          0.02408       -2.55287       -0.03126
C         -1.32372       -2.06288       -0.00898
C         -1.79291       -0.71117        0.04692
N         -3.04100       -0.36099        0.06630
H         -5.29757        0.43597        0.07098
H         -4.89966        2.00279       -0.02201
H         -2.04074        2.50087       -0.23291
H          2.10006        2.52044       -0.38434
H          5.29752        0.45798        0.03890
H          4.86863        2.01485       -0.02927
H          0.11464       -3.64985       -0.07428
H         -2.09365       -2.82940       -0.03597
