23
Coordinates from ORCA-job ./opt_b97-3c_parallel
N          4.46226        0.86613       -0.09447
C          3.18195        0.46965       -0.04593
C          2.74585       -0.80965       -0.02774
C          1.32572       -0.80972       -0.00968
C          0.68476       -2.08238       -0.00076
C         -0.65739       -2.34582        0.01046
N         -1.85792       -1.76161        0.01723
C         -2.18217       -0.41859        0.01391
N         -3.52321       -0.11779        0.02215
C         -3.64954        1.26330        0.01772
C         -2.41179        1.84533        0.00592
C         -1.50330        0.83423        0.00522
N         -0.17639        1.24773       -0.00449
C          0.94118        0.50695       -0.00977
C          2.09994        1.24651       -0.03048
H          5.21206        0.22258        0.16124
H          4.74047        1.80630        0.18103
H          3.35818       -1.70677       -0.03313
H          1.36054       -2.93304       -0.00617
H         -0.89926       -3.41993        0.01477
H         -4.69365        1.61326        0.02591
H         -2.20853        2.91421       -0.00209
H          2.14001        2.33512       -0.04802
