25
Coordinates from ORCA-job ./opt_b97-3c_parallel
N          4.66774       -1.25175       -0.09681
C          3.42817       -0.74334       -0.04379
C          3.14293        0.55224       -0.04808
C          1.79414        0.76161        0.01404
N          1.34045        2.02249        0.03765
C          0.02358        2.48602        0.04162
C         -1.33897        1.98487       -0.04925
C         -1.91599        0.71837       -0.07617
C         -3.27412        0.69200       -0.19592
C         -3.45996       -0.66498       -0.10354
N         -4.40463       -1.24387       -0.11427
N         -2.30640       -1.42677        0.02559
C         -1.29748       -0.55308        0.04363
N         -0.05519       -0.80869        0.19461
C          1.16417       -0.44327        0.07996
C          2.23512       -1.38386        0.02816
H          4.85633       -2.20696        0.20540
H          5.47542       -0.67967        0.14735
H          3.88824        1.34555       -0.09363
H          0.27569        3.55786        0.05655
H         -2.02986        2.82320       -0.10042
H         -3.90692        1.38929        0.35333
H         -5.33247       -0.81868       -0.16503
H         -4.57696       -2.24947       -0.06104
H          2.08769       -2.45947        0.06464
