23
Coordinates from ORCA-job ./opt_b97-3c_parallel
N          1.25088       -2.93861        0.00720
C          0.68969       -1.99116        0.08100
C         -0.70445       -1.84553       -0.21763
C         -1.46411       -0.69542       -0.04699
N         -2.79909       -0.77671       -0.09656
C         -3.32729        0.48855        0.06000
N         -4.39661        0.76007        0.06539
N         -2.27921        1.37989        0.16475
C         -1.11980        0.71007        0.10583
C          0.07003        1.44241        0.03790
C          1.42612        1.15087        0.00221
N          2.38076        2.05466       -0.22676
C          3.59203        1.39557       -0.11905
N          3.37008        0.07327        0.22150
C          2.04716       -0.08708        0.30761
N          1.38635       -1.11114        0.70265
H          2.18869       -3.32074       -0.11349
H          0.64816       -3.74214        0.18456
H         -1.21053       -2.76669       -0.50271
H         -4.82040        1.66510        0.27343
H         -5.17041        0.14785       -0.19591
H         -0.10712        2.51525       -0.02322
H          4.51939        1.96965       -0.28037
