31
Coordinates from ORCA-job ./opt_b97-3c_parallel
N          5.66735        0.55131       -0.25349
C          4.54537        0.34276       -0.19409
C          3.13183        0.10611       -0.08679
C          2.43535       -1.08726       -0.12820
N          2.92591       -2.07446       -0.24741
C          1.10840       -0.79471        0.04884
C          0.16906       -1.86003        0.20946
N         -0.99320       -1.70678        0.73194
C         -2.15850       -1.35572        0.33862
N         -2.78199       -2.26001        0.44559
C         -2.46491       -0.00332        0.00291
C         -3.73303        0.43273       -0.25556
N         -4.79925        0.16836       -0.37748
N         -3.81738        1.76189       -0.40281
C         -2.51726        2.23435       -0.22492
C         -1.61507        1.14341        0.01783
C         -0.26219        1.42392        0.18078
C          0.92016        0.56267        0.15306
C          2.16193        1.17136        0.10367
N          2.44842        2.24169        0.16191
H          2.73571       -3.03870       -0.51580
H          3.93570       -1.94989       -0.32382
H          0.30644       -2.95167        0.16930
H         -2.40956       -3.19551        0.28177
H         -2.83705       -2.15211        1.45835
H         -4.74132       -0.84608       -0.27861
H         -5.77955        0.38446       -0.55546
H         -2.39607        3.32469       -0.31924
H         -0.03757        2.48642        0.20033
H          2.10559        2.86782        0.88625
H          3.46325        2.33718        0.15370
