29
Coordinates from ORCA-job ./opt_b97-3c_parallel
N         -0.28125       -4.17341       -1.28397
C         -0.14462       -3.10829       -0.89220
C          0.00041       -1.75388       -0.43167
C         -1.21955       -1.03359       -0.11395
C         -2.46149       -1.60376       -0.01772
C         -3.24629       -0.51346        0.27067
N         -4.30176       -0.79682        0.43345
C         -2.58467        0.69415        0.25990
C         -3.05719        2.03554        0.43339
N         -3.46492        3.09404        0.57584
C         -1.22088        0.38391        0.00401
N         -0.26548        1.21883       -0.24302
C          0.88663        1.78569       -0.36443
N          0.39100        2.70948       -0.71112
C          2.14602        1.24903        0.08766
C          3.24103        2.16858        0.22278
N          4.09044        2.92779        0.31802
C          2.27385       -0.15995        0.45928
N          3.39573       -0.50583        1.03301
C          3.37643       -1.71922        0.65026
C          2.30791       -2.16774        0.04670
C          1.26147       -1.10522       -0.05207
H         -2.78680       -2.36841       -0.72285
H         -4.88644       -1.61155        0.25514
H         -4.93046       -0.02251        0.64137
H         -0.25175        3.43990       -1.01073
H          1.33190        3.07888       -0.83633
H          4.30785       -2.22909        0.93746
H          2.30795       -3.22144       -0.22313
