29
Coordinates from ORCA-job ./opt_b97-3c_parallel
N         -3.75735       -2.75668        1.07020
C         -3.16627       -1.82711        0.77088
C         -2.45939       -0.65285        0.35203
C         -3.45433        0.07649       -0.23435
N         -4.45838        0.38013       -0.60498
N         -3.00857        1.25821       -0.63391
C         -1.67231        1.24937       -0.24393
C         -1.09751        2.57233       -0.38558
C          0.18061        2.92993        0.15317
C          0.94330        2.10988        0.91109
C          1.54441        1.24430        0.05453
N          2.90896        1.46664       -0.10994
C          3.39576        0.24016       -0.28053
N          4.41406        0.66462       -0.41755
C          2.42078       -0.71375       -0.15820
C          3.12039       -1.95409       -0.31298
N          3.71410       -2.92097       -0.43697
C          1.20511       -0.07949        0.00445
C         -0.03165       -0.60849        0.19295
C         -0.00709       -1.71633        0.33887
N          0.07341       -2.59407        1.06745
C         -1.24950        0.00780        0.23243
H         -4.98020       -0.49901       -0.59038
H         -5.16820        1.10971       -0.69023
H         -1.67827        3.35665       -0.86507
H          0.48780        3.96190        0.00430
H          1.44709        2.47770        1.80374
H          5.05275        1.45217       -0.53991
H          5.00538       -0.16833       -0.46162
