32
Coordinates from ORCA-job ./opt_b97-3c_parallel
N         -0.14131        3.78575       -1.83417
C          0.08064        2.75886       -1.38554
C          0.30354        1.47362       -0.79697
C          1.58118        1.09388       -0.22434
C          2.61718        1.97838       -0.18390
C          3.41091        1.04854        0.43242
N          4.41024        1.44304        0.69355
C          3.20530       -0.26008        0.77955
C          1.93951       -0.21078        0.27891
C          1.15960       -1.42435        0.11694
C          1.66676       -2.71454        0.48459
N          2.07372       -3.75115        0.74096
C         -0.05906       -1.60431       -0.47320
N         -0.37012       -2.08147       -1.69270
C         -1.12999       -1.37235        0.34360
C         -1.72942       -2.49818        0.99726
N         -2.24217       -3.36798        1.53101
C         -1.64881       -0.04072        0.51193
N         -2.69412        0.24730        1.21921
C         -3.49866        0.94564        0.48548
N         -4.53457        1.32936        0.52655
C         -2.33302        1.38738       -0.06647
C         -0.91215        0.94584       -0.22430
H          2.94546        2.50881       -1.07723
H          5.21657        0.83475        0.83073
H          4.77415        2.39314        0.63386
H          3.39654       -0.62153        1.78892
H         -1.20484       -2.65725       -1.80341
H          0.35765       -2.53461       -2.24603
H         -5.31710        0.78596        0.89293
H         -4.92280        2.23444        0.26799
H         -2.33596        2.35230       -0.57092
