29
Coordinates from ORCA-job ./opt_b97-3c_parallel
N          3.63423       -2.88008       -0.01902
C          3.03308       -1.91059       -0.09127
C          2.87265       -0.49075       -0.00739
C          3.82446        0.56653        0.12516
N          4.92590        0.50238        0.20110
C          3.37403        1.85863        0.17320
C          2.04195        1.55109        0.06963
N          1.24359        2.69527        0.05395
C         -0.12799        2.97290       -0.00365
C         -1.40143        2.27896       -0.00086
C         -1.64556        0.85977       -0.01220
C         -2.96464        0.30613        0.02578
C         -4.15683        1.10051        0.09531
N         -5.08965        1.75912        0.13635
C         -3.01778       -1.06755       -0.01623
N         -4.09507       -1.86540       -0.14539
C         -1.65986       -1.28548       -0.07756
C         -1.22207       -2.65059       -0.13360
N         -1.01749       -3.75697        0.06883
C         -0.77501       -0.15990       -0.09363
N          0.49108       -0.27024       -0.19426
C          1.68196        0.17433       -0.05328
H          5.21810       -0.46469        0.06744
H          5.74901        1.08381        0.05339
H          3.81200        2.63765       -0.45048
H         -0.20364        4.07092        0.01109
H         -2.26797        2.93161        0.01320
H         -4.02936       -2.85633        0.08193
H         -5.01753       -1.53368        0.13068
