30
Coordinates from ORCA-job ./opt_b97-3c_parallel
N         -5.29155       -0.96997       -0.36224
C         -4.19434       -0.65772       -0.30260
C         -2.80366       -0.30206       -0.21153
C         -2.37078        1.03244        0.13317
N         -3.03765        1.88997        0.34801
C         -0.93354        0.97204        0.10968
C         -0.22541        2.18021        0.49019
C          1.11859        2.42668        0.07084
C          1.72786        1.68188       -0.88085
C          2.46782        0.79939       -0.17056
C          3.81321        0.89552        0.04868
N          4.16991       -0.33824        0.39451
C          3.13093       -1.25148        0.44580
N          3.53807       -2.24363        0.70637
C          1.98036       -0.49298        0.11511
C          0.73121       -1.04430       -0.07597
C         -0.53123       -0.32185       -0.17855
C         -1.70485       -1.12582       -0.37809
N         -1.79292       -2.21069       -0.59122
H         -4.01259        1.61529        0.23370
H         -3.03315        2.90143        0.46831
H         -0.76018        3.00268        0.95606
H          1.53537        3.38960        0.35276
H          2.10712        2.13856       -1.79282
H          4.60612        1.65795        0.00330
H          4.37293       -2.79353        0.50687
H          2.84877       -2.89443        1.08113
H          0.67390       -2.12843       -0.07757
H         -2.68161       -2.46652       -0.16115
H         -1.70643       -2.78213       -1.43005
