26
Coordinates from ORCA-job ./opt_b97-3c_parallel
N          0.92368       -3.00731       -0.39362
C          0.55834       -2.02810       -0.03903
N         -0.50688       -2.02334        0.24856
C         -1.46065       -1.46759        0.24229
C         -2.06666       -0.18278        0.09706
C         -3.47126        0.02584        0.12558
C         -3.71458        1.34865       -0.08669
C         -2.56150        1.99414       -0.24612
C         -1.51662        1.12206       -0.13795
C         -0.12862        1.53691       -0.23833
C          1.04656        0.70621       -0.07944
C          2.31549        1.36726       -0.16321
N          2.93052        2.27128       -0.30767
N          2.84610        0.42622        0.04975
C          2.47173       -0.52841        0.45537
C          1.07010       -0.70396        0.18779
H          1.36238       -2.67657       -1.25016
H          0.26637       -3.73834       -0.65782
H         -2.09854       -2.34819        0.41278
H         -4.20226       -0.76379        0.26886
H         -4.70066        1.80468       -0.12750
H         -2.46787        3.06106       -0.43536
H          0.04405        2.59285       -0.42337
H          2.22969        2.47793        0.40052
H          3.83011        2.23488        0.16782
H          3.19074       -1.36072        0.42772
