28
Coordinates from ORCA-job ./opt_b97-3c_parallel
N         -3.60869        1.67657       -0.55503
C         -2.77795        0.99788       -0.29054
N         -2.59904       -0.25042        0.03547
C         -2.13259       -1.43176        0.32097
N         -2.53128       -2.34501        0.79855
C         -1.00936       -0.58078        0.02981
C          0.42449       -1.01549        0.06986
N          0.56594       -2.30166        0.44363
C          1.66083       -0.49641       -0.21099
C          2.58965       -1.08447       -1.02559
N          3.60037       -0.23055       -1.05739
C          3.38518        0.91717       -0.32112
C          2.09458        0.78283        0.24696
C          1.46237        1.70559        1.03493
C          0.28142        2.22333        0.69705
C         -0.39015        1.77361       -0.40321
C         -1.36887        0.72481       -0.27499
H         -3.34832        2.60828       -0.88112
H         -4.62956        1.66318       -0.55417
H         -3.18812       -3.11109        0.95362
H         -1.61862       -2.69661        1.09629
H          0.36746       -3.02994       -0.24224
H          1.45123       -2.58064        0.86902
H          3.18130       -1.76841       -1.65368
H          4.28280        1.54515       -0.43138
H          1.97174        2.07375        1.92337
H         -0.16613        2.99109        1.32468
H         -0.17190        2.21019       -1.37336
