26
Coordinates from ORCA-job ./opt_b97-3c_parallel
N         -3.94257        2.07003       -0.50269
C         -3.17651        1.23632       -0.35161
C         -2.18436        0.22311       -0.16183
C         -2.50280       -1.08921        0.32868
N         -3.42622       -1.60285        0.65408
C         -1.46683       -1.98894        0.43230
C         -0.46748       -1.14522        0.03240
N          0.75380       -1.65985       -0.20815
C          1.95819       -0.95955       -0.34760
N          3.08520       -1.71032       -0.58752
C          4.19562       -0.93325       -0.29278
N          3.78929        0.29399        0.20517
C          2.41921        0.30911        0.14924
C          1.72894        1.48627        0.61962
C          0.44124        1.82677        0.08540
N          0.05729        2.81863        0.38530
C         -0.13869        1.16804       -0.95238
C         -0.83926        0.15931       -0.37661
H         -4.23154       -0.98629        0.54740
H         -3.79740       -2.54983        0.72058
H         -1.53752       -2.99690        0.02022
H          5.23247       -1.29051       -0.39533
H          2.28455        2.23310        1.18328
H         -0.86961        3.23585        0.47238
H          0.71545        3.59796        0.39724
H         -0.51772        1.69369       -1.82973
