28
Coordinates from ORCA-job ./opt_b97-3c_parallel
N         -4.18272        0.29331       -0.77593
C         -3.14637        0.01711       -0.50918
N         -3.00016       -1.34084       -0.74439
C         -1.79795       -1.84711       -0.47044
C         -1.06167       -0.78935       -0.00826
C          0.25072       -0.81915        0.38897
N          0.43211       -1.56588        1.49177
C          1.37891       -0.16406       -0.03274
C          2.52001       -0.76264       -0.50591
N          3.12260       -1.65772       -0.75680
N          3.46956        0.10316       -0.90589
C          2.94730        1.37800       -0.68713
C          1.64032        1.23089       -0.12460
C          0.83408        2.28153        0.26048
C         -0.30642        2.01137        0.95775
C         -1.50652        1.71707        0.38368
C         -1.86683        0.38504       -0.02275
H         -5.02025       -0.28092       -0.67056
H         -4.52030        1.22246       -1.03020
H         -1.92268       -2.91651       -0.70226
H          1.16810       -1.33950        2.16064
H         -0.36507       -1.91499        2.02359
H          4.14013       -1.74027       -0.80608
H          2.78357       -2.61549       -0.66999
H          3.58942        2.23512       -0.94594
H          1.15996        3.31023        0.12901
H         -0.28608        2.16290        2.03567
H         -2.26736        2.48742        0.29431
