23
Coordinates from ORCA-job ./opt_b97-3c_parallel
N          2.56757        3.09441       -0.03885
C          2.34223        1.97420       -0.03912
C          2.00462        0.58425       -0.03699
C          2.98963       -0.44973        0.00561
N          4.03264       -0.80146        0.04235
N          2.07210       -1.08228       -0.01360
C          1.01420       -1.43182       -0.04105
C          0.08945       -2.43611       -0.05350
C         -1.24780       -2.18564        0.03642
N         -2.52587       -1.66674        0.11362
C         -2.71749       -0.28439        0.08242
C         -3.97274        0.23952        0.16235
C         -3.68101        1.57770        0.08146
N         -2.36816        1.83240       -0.02326
C         -1.67918        0.69853       -0.02918
N         -0.40339        0.49680       -0.11679
C          0.78400       -0.01740       -0.07041
H          4.60647        0.04035        0.02789
H          4.67475       -1.59184        0.01512
H          0.43433       -3.46760       -0.09144
H         -1.75190       -3.16294        0.09851
H         -4.79835       -0.18773       -0.40279
H         -4.50868        2.30302        0.11035
