19
Coordinates from ORCA-job ./opt_b97-3c_parallel
C          0.21299        1.81703        0.07767
N         -1.03327        1.62232        0.61974
C         -1.75808        0.51177        0.21032
C         -3.12002        0.56201        0.24780
C         -3.44027       -0.72156       -0.12224
N         -2.36437       -1.50951       -0.27695
C         -1.25831       -0.79607       -0.11362
N         -0.01778       -1.42126        0.06138
C          1.25028       -0.85370        0.17711
N          2.43420       -1.42704        0.55547
C          3.40370       -0.46460        0.33892
C          2.95079        0.71463       -0.19307
C          1.61781        0.43787       -0.29932
N          0.81227        1.23999       -0.90947
H          0.35085        2.76801        0.61794
H         -3.66128        1.40992       -0.16776
H         -4.46185       -1.12171       -0.21570
H          4.43863       -0.75398        0.58109
H          3.49255        1.20451       -1.00058
