30
Coordinates from ORCA-job ./opt_b97-3c_parallel
N         -1.88195        3.44025        1.42012
C         -1.45951        2.43446        1.08529
C         -0.98386        1.15112        0.65731
C          0.44869        0.97916        0.43352
C          1.33517        2.10787        0.37567
C          2.57631        1.87063       -0.16076
N          3.31289        2.94323       -0.48740
C          2.48221        0.53343       -0.44879
C          3.63766       -0.10073       -1.00784
N          4.54134       -0.60784       -1.48777
C          1.23842       -0.08570       -0.08296
C          0.96094       -1.49870       -0.06657
C          1.80396       -2.51688       -0.62094
N          2.44361       -3.36265       -1.04393
C          0.00728       -1.83281        0.95129
N         -0.29410       -2.80899        1.38068
N         -1.21020       -2.07873        0.46519
C         -1.98319       -1.16384       -0.14800
N         -3.22740       -1.49926       -0.63196
C         -3.97117       -0.33425       -0.77602
N         -4.98617       -0.04481       -1.10429
N         -3.21564        0.72563       -0.29489
C         -1.97156        0.24830        0.07126
H          0.99405        3.11007        0.61740
H          4.26183        2.82063       -0.84085
H          3.31220        3.77260        0.10467
H          0.69930       -2.94679        1.57300
H         -0.75526       -3.65122        1.72756
H         -5.46531        0.85484       -1.03313
H         -5.65771       -0.67232       -1.55057
