30
Coordinates from ORCA-job ./opt_b97-3c_parallel
N          0.01425       -3.72573       -0.15772
C          0.05894       -2.58578       -0.09252
C          0.05366       -1.14501       -0.01538
C          1.36917       -0.50915       -0.02668
C          2.47006       -1.32017       -0.08647
C          3.46519       -0.44986        0.24500
N          4.49670       -0.81201        0.39105
C          3.19429        0.88282        0.15394
C          1.83138        0.84824        0.08951
C          1.29172        2.12212        0.10922
C         -0.04695        2.62705       -0.01387
N         -0.09113        3.73381       -0.05004
C         -1.28412        2.03538       -0.04066
C         -1.70921        0.74328        0.05351
N         -2.89700        0.23612        0.08731
C         -3.55507       -0.83138       -0.22795
N         -4.65180       -0.94566       -0.18498
C         -2.37378       -1.36310        0.19417
C         -1.27119       -0.55362        0.09532
H          2.60785       -2.02810       -0.90293
H          4.83810       -1.76463        0.27362
H          5.31671       -0.20720        0.37865
H          3.77673        1.52527       -0.50599
H          2.04174        2.91358        0.18375
H         -0.79559        4.46983       -0.05356
H          0.80457        4.20406       -0.17580
H         -2.13042        2.72137       -0.10463
H         -5.42904       -0.29321       -0.08413
H         -5.06949       -1.87179       -0.27404
H         -2.38400       -2.20859        0.88284
