31
Coordinates from ORCA-job ./opt_b97-3c_parallel
N         -0.45691       -3.83314        1.63896
C         -0.35122       -2.78656        1.19643
C         -0.20245       -1.49092        0.59956
C          1.14581       -0.99454        0.36890
C          2.28994       -1.82439        0.60881
C          3.40860       -1.20947       -0.04648
N          4.48284       -1.40695       -0.21640
N          2.98310       -0.03999       -0.65777
C          1.62477        0.10533       -0.40639
C          0.95659        1.35999       -0.66341
C          1.68967        2.34126       -1.42355
N          2.30176        3.09100       -2.02792
C          0.15198        1.75641        0.47832
N          0.47409        2.67058        1.02630
C         -1.20110        1.43136        0.45138
C         -2.19241        2.23413        1.13604
N         -3.18223        2.76977        1.33193
C         -1.74762        0.40625       -0.31222
C         -3.06360        0.40931       -0.69769
C         -3.48114       -0.90013       -0.69193
N         -4.42316       -1.46677       -0.80919
N         -2.43551       -1.66359       -0.32821
C         -1.32519       -0.94223       -0.14715
H          2.31203       -2.78869        1.10874
H          4.99448       -2.25497        0.03423
H          5.18813       -0.76932       -0.58990
H         -0.23676        3.32395        1.35957
H          1.34219        3.20783        1.01214
H         -3.42851        1.11513       -1.44291
H         -5.31263       -0.96663       -0.86064
H         -4.67385       -2.45682       -0.79327
