23
Coordinates from ORCA-job ./opt_b97-3c_parallel
N         -4.43593       -1.26334       -0.03099
C         -3.16163       -0.77487        0.01188
C         -2.91308        0.63434       -0.00221
C         -1.85197        0.93055        0.03132
N         -0.98280        1.95717        0.00952
C          0.03609        2.36370       -0.09091
C          1.42505        2.00686       -0.00960
C          1.97394        0.71610       -0.05296
N          3.28284        0.44409        0.01583
C          2.94184       -0.62448       -0.01964
N          4.18102       -1.19989        0.06590
N          2.23991       -1.49906       -0.06755
C          1.27942       -0.57277       -0.16869
N         -0.01657       -0.69533        0.16747
C         -1.34149       -0.48012        0.08517
N         -2.28219       -1.43488        0.05648
H         -4.59891       -2.26007        0.06094
H         -5.22960       -0.63515        0.02562
H         -3.72020        1.35897       -0.04313
H         -0.41027        3.34915       -0.03251
H          2.05849        2.88561        0.08077
H          4.28026       -2.20313       -0.03920
H          5.01324       -0.62386        0.00748
