30
Coordinates from ORCA-job ./opt_b97-3c_parallel
N         -2.33118        2.37107       -1.03269
C         -2.25758        1.10838       -0.57981
C         -3.26031        0.24406       -0.72524
C         -2.98329       -0.96080       -0.25506
C         -1.71530       -0.90111        0.21003
C         -0.93148       -2.01988        0.65388
N         -1.04214       -3.10334        0.81928
N          0.35919       -2.03152        0.70379
C          1.29547       -1.66653       -0.11153
C          1.64920       -0.28627       -0.20039
C          2.91992        0.03437       -0.55404
N          3.92720       -0.17572       -0.95977
N          3.28566        1.17595        0.03395
C          2.18125        1.55033        0.80710
C          1.11531        0.74224        0.49884
C         -0.16699        1.06442        0.69193
N         -0.55873        2.12328        1.42628
C         -1.23803        0.44923        0.06854
H         -1.50809        2.84142       -1.40198
H         -3.13807        2.67331       -1.57716
H         -4.21041        0.49408       -1.19332
H         -3.63586       -1.83077       -0.26609
H         -1.00843       -4.11893        0.74862
H         -1.90480       -2.87192        1.30870
H          1.55489       -2.71027       -0.34568
H          4.01443       -1.10175       -1.37720
H          4.86665        0.22193       -0.95969
H          2.23010        2.46938        1.41107
H          0.01042        2.96580        1.47080
H         -1.53464        2.41888        1.39364
