23
Coordinates from ORCA-job ./opt_b97-3c_parallel
N          4.19174       -0.73569        0.00686
C          3.14910       -0.36711       -0.01049
N          2.13470       -1.31401       -0.01048
C          0.96721       -0.59470       -0.01543
C         -0.22095       -1.28749       -0.01125
C         -1.56855       -0.79755       -0.00710
C         -2.59302       -1.78567       -0.00260
C         -3.79961       -1.18019        0.00366
C         -3.58089        0.12690        0.00318
C         -2.23749        0.40718       -0.00277
C         -1.79240        1.76918       -0.00171
C         -0.52305        2.29123       -0.00839
N          0.78152        1.98947       -0.01667
C          1.40207        0.75456       -0.01936
N          2.69390        0.85843       -0.02075
H          4.51564       -1.70385        0.04649
H          5.03986       -0.16674        0.03591
H         -0.13964       -2.37246       -0.00984
H         -2.43168       -2.85991       -0.00256
H         -4.76949       -1.67329        0.00768
H         -4.37256        0.87398        0.00679
H         -2.60830        2.48828        0.00453
H         -0.62902        3.38792       -0.00558
