29
Coordinates from ORCA-job ./opt_b97-3c_parallel
N          3.55434       -2.22081       -0.46274
C          2.86797       -1.37728       -0.26091
N          3.76540       -0.34449       -0.04255
C          3.25234        0.84430        0.26624
C          1.90685        0.61247        0.19374
C          0.93875        1.68396        0.20225
N          1.01300        2.77338        0.35117
N         -0.28229        1.62752       -0.22726
C         -1.52192        1.26618       -0.30851
N         -2.09220        2.14317       -0.65651
C         -1.87738       -0.06029        0.07973
C         -3.15434       -0.53748        0.15421
N         -4.23312       -0.33218        0.02038
N         -3.16480       -1.78133        0.60925
C         -1.80880       -2.00662        0.79637
C         -0.83504       -0.97920        0.45669
C          0.37732       -1.54567       -0.08556
C          1.60111       -0.76468       -0.06580
H          4.56869       -2.20566       -0.34431
H          3.35116       -3.11214       -0.91572
H          3.82363        1.76586        0.46116
H          0.42114        3.55964        0.08429
H          1.59841        3.11119        1.11405
H         -1.82433        3.09495       -0.40583
H         -2.22842        2.14478       -1.66667
H         -4.39740        0.66277       -0.13980
H         -5.15818       -0.76192        0.06521
H         -2.00681       -3.02378        1.17108
H          0.45930       -2.59776       -0.34497
