23
Coordinates from ORCA-job ./opt_b97-3c_parallel
N          4.38627       -1.12036        0.39035
C          3.18394       -0.51710        0.15727
C          2.07676       -1.25460       -0.37019
C          1.16618       -0.65011       -0.50945
N         -0.13294       -0.68710       -0.85675
C         -1.40459       -0.46484       -0.47377
N         -2.36236       -1.39991       -0.40213
C         -3.15561       -0.74438       -0.01193
N         -4.39505       -1.24514        0.26610
C         -2.85758        0.63980        0.19433
C         -1.82538        0.92087       -0.07074
N         -0.92949        1.92655       -0.08345
C          0.09390        2.33753       -0.02909
N          1.03580        1.76241       -0.03098
C          1.77982        0.63860       -0.03787
N          3.05308        0.55368        0.37343
H          5.16224       -0.58578        0.76565
H          4.52694       -2.10037        0.17149
H          2.15100       -2.31141       -0.60690
H         -5.10884       -0.65813        0.68272
H         -4.58056       -2.23593        0.15543
H         -3.59579        1.33526        0.58049
H          0.25333        3.20636       -0.64964
