26
Coordinates from ORCA-job ./opt_b97-3c_parallel
N         -4.45337        1.65696       -0.00858
C         -3.57618        0.92537       -0.00710
C         -2.51367       -0.02728       -0.00517
C         -1.10632        0.22622       -0.00385
C         -0.59661        1.58539        0.00026
C          0.76889        2.10978       -0.00344
N          0.72907        3.21417        0.00595
C          2.07985        1.63133       -0.01728
C          2.54338        0.27281       -0.01651
N          3.86213        0.03786       -0.01431
C          4.33305       -1.19848        0.00410
C          3.14577       -1.78798        0.01535
C          2.09519       -0.99344        0.00314
N          0.81825       -1.22890        0.00272
C         -0.48876       -1.04954       -0.00147
N         -1.43208       -2.06096       -0.00205
C         -2.68303       -1.45523       -0.00509
N         -3.57871       -2.10920       -0.00672
H         -1.38158        2.34118        0.00452
H         -0.06044        3.85825        0.04502
H          1.56222        3.79836        0.08177
H          2.89109        2.36201       -0.02614
H          5.42797       -1.31458        0.00441
H          3.05008       -2.87127        0.03245
H         -3.80331       -3.10568       -0.00706
H         -4.48450       -1.63367       -0.02149
