29
Coordinates from ORCA-job ./opt_b97-3c_parallel
N          3.22245        2.17619       -0.69135
C          2.79362        0.90615       -0.62750
C          3.65121       -0.10602       -0.27991
C          3.22423       -1.38938       -0.06755
C          1.89441       -1.12410       -0.02036
C          1.01186       -2.02278        0.68794
C         -0.32753       -2.23193        0.22786
C         -0.80718       -1.67133       -0.91292
C         -1.42463       -0.63380       -0.29447
C         -2.77486       -0.50510       -0.10529
N         -3.74126       -1.02842       -0.24083
N         -3.13927        0.69553        0.39045
C         -1.96237        1.43654        0.53744
N         -2.13561        2.46976        0.89228
C         -0.87760        0.58844        0.14282
C          0.47619        1.05730        0.02974
C          1.63533        0.25932       -0.33230
H          4.22298        2.36826       -0.73523
H          2.76120        2.84307       -1.30684
H          4.70993        0.11085       -0.16718
H          3.70947       -2.02491        0.67012
H          1.43694       -2.80556        1.31050
H         -0.86117       -3.05492        0.69570
H         -1.30640       -2.27303       -1.67026
H         -4.74891       -0.89660       -0.34142
H         -3.59172       -2.03623       -0.30865
H         -2.79449        3.23842        0.75542
H         -1.30945        2.89342        1.31787
H          0.62840        2.12857        0.12300
