29
Coordinates from ORCA-job ./opt_b97-3c_parallel
N         -0.17453        2.88438       -2.28297
C         -0.04480        1.93528       -1.66205
C          0.05995        0.75372       -0.85271
C          1.37860        0.36642       -0.37014
C          2.48338        1.14103       -0.57767
C          3.14852        0.39344        0.35964
N          4.20005        0.72295        0.46407
C          2.81382       -0.62724        1.21191
C          1.61578       -0.69090        0.56755
C          0.97585       -1.91554        0.57891
C          0.14193       -2.27444       -0.52939
N         -0.35749       -3.08723       -1.08627
N         -1.18378       -1.91337       -0.69658
C         -1.61425       -0.85946        0.02773
N         -2.94751       -0.70483        0.32028
C         -3.16421        0.63866        0.58798
N         -4.22706        0.84784        0.81717
C         -2.02516        1.35681        0.32423
C         -1.04623        0.44915        0.03239
H          2.43881        2.22726       -0.49675
H          4.96294        0.21066        0.90597
H          4.61624        1.56933        0.07714
H          3.45081       -1.50647        1.32082
H          1.40676       -2.72708        1.16119
H          0.58521       -3.40656       -1.30949
H         -0.96616       -3.89511       -1.22181
H         -5.00396        0.26930        1.14288
H         -4.62325        1.78223        0.69755
H         -1.80336        2.29271        0.83401
