20
Coordinates from ORCA-job ./opt_b97-3c_parallel
C         -0.00467        2.31135       -0.00281
C          1.29557        1.79859       -0.00300
C          1.84309        0.50588       -0.00389
N          3.17291        0.34764       -0.00364
C          2.95030       -0.74540       -0.00278
N          2.35138       -1.68659       -0.00349
C          1.30082       -0.85567       -0.00382
C         -0.00834       -1.32702       -0.00481
C         -1.31702       -0.85250       -0.00584
N         -2.36935       -1.68133       -0.00646
C         -2.96569       -0.73860       -0.00610
N         -3.18655        0.35486       -0.00567
C         -1.85638        0.51002       -0.00520
C         -1.30582        1.80143       -0.00363
H         -0.00334        3.39944       -0.00170
H          2.04446        2.58869       -0.00238
H          3.96573       -1.11831        0.00018
H         -0.00982       -2.41613       -0.00514
H         -3.97655       -1.12359       -0.00183
H         -2.05291        2.59325       -0.00330
