26
Coordinates from ORCA-job ./opt_b97-3c_parallel
N          2.26201        2.06389        2.18871
C          1.36517        1.58042        1.67453
C          1.17167        1.18686        0.65703
C          0.30040        1.77590       -0.21063
N          0.22307        2.66539       -0.86524
N         -0.98499        1.70035       -0.57071
C         -1.84334        0.74198       -0.16931
N         -3.20915        0.88461       -0.24976
C         -3.77922       -0.31331        0.17437
N         -4.88984       -0.34979        0.17855
C         -2.80101       -1.23340        0.49283
C         -1.60704       -0.59807        0.28361
N         -0.46734       -1.43000        0.22348
C          0.91175       -1.21377        0.04635
N          1.81954       -2.22563       -0.19469
C          3.11138       -1.71446       -0.21941
N          4.03762       -2.29751       -0.38151
N          2.99049       -0.35576        0.04268
C          1.66273       -0.01417        0.23468
H         -0.35494        3.50279       -0.97598
H          1.17845        2.99808       -1.00413
H         -5.53568        0.32920        0.59463
H         -5.51458       -1.07082       -0.19732
H         -2.93247       -2.28889        0.25225
H          4.95429       -1.96886       -0.06692
H          4.21782       -3.23552       -0.74907
