28
Coordinates from ORCA-job ./opt_b97-3c_parallel
N          4.36044       -1.47792       -1.14877
C          4.38875       -1.22571       -0.03428
C          3.34713       -0.24514        0.06215
C          3.60206        1.11093        0.00506
N          4.40587        1.86935       -0.09948
N          2.41787        1.84108        0.08077
C          1.39639        0.96614        0.17528
C          0.05610        1.54797        0.20493
C         -1.21577        0.97943        0.18607
N         -2.46275        1.33689        0.13679
C         -3.73348        1.11252       -0.01018
N         -4.50644        1.90023       -0.12280
C         -3.25464       -0.18158        0.08197
C         -4.30360       -1.15921       -0.02028
N         -4.24364       -1.56551       -1.08782
C         -1.81910       -0.26444        0.21090
N         -1.36345       -1.52798        0.29889
C         -0.00005       -1.64013        0.29490
N         -0.02541       -2.74644        0.39139
N          1.36882       -1.59373        0.27691
C          1.92723       -0.37179        0.18611
H          5.20132        1.49820       -0.62719
H          4.71205        2.79992        0.19680
H          0.05206        2.63532        0.18718
H         -5.29415        1.52641       -0.65938
H         -4.82275        2.82432        0.18183
H          0.75838       -3.40036        0.47035
H         -0.83925       -3.36618        0.43373
