25
Coordinates from ORCA-job ./opt_b97-3c_parallel
N          4.14712        1.73793        0.70124
C          3.14358        1.26829        0.42266
C          1.86120        0.72051        0.08777
C          0.80111        1.65003       -0.24565
N          0.54692        2.71557       -0.37651
N         -0.45184        1.41829       -0.47656
C         -1.57493        0.79599       -0.29867
C         -2.78857        1.36527       -0.05060
C         -3.57987        0.25099        0.07760
N         -4.62968       -0.01312        0.28643
N         -2.88159       -0.88212       -0.09594
C         -1.60292       -0.61628       -0.34034
N         -0.51033       -1.26988       -0.56781
C          0.69308       -1.55629       -0.19878
C          0.88956       -2.90252       -0.11693
C          2.18628       -2.76860        0.30204
N          2.76287       -1.52156        0.44469
C          1.78376       -0.67820        0.11891
H          0.18224        3.58757       -0.75784
H          1.55908        2.82744       -0.33806
H         -2.88504        2.20434        0.63563
H         -5.24256       -0.81519        0.14447
H         -5.21642        0.73279        0.65923
H          0.65117       -3.56236       -0.94962
H          3.06870       -3.36591        0.58037
