25
Coordinates from ORCA-job ./opt_b97-3c_parallel
N          2.10893       -2.10083       -1.14211
C          1.83476       -1.49584       -0.26507
N          0.67771       -1.91508        0.13014
C         -0.58668       -2.03652        0.38105
C         -1.51173       -0.95572        0.20749
C         -2.90254       -1.17344        0.43153
N         -3.45929       -0.01716        0.08681
C         -2.48698        0.81346       -0.29587
N         -3.21343        1.61176       -0.54541
C         -1.10987        0.36387       -0.23938
C         -0.25049        1.51126       -0.05853
C          1.16390        1.24992        0.00529
C          2.05174        2.35852        0.18084
N          2.81001        1.56377        0.14812
C          2.94269        0.50119        0.40143
C          1.72347       -0.07218       -0.09718
H          2.40719       -3.07319       -1.09293
H          2.93749       -1.55423       -1.37224
H         -0.66479       -3.09251        0.68288
H         -3.39503       -2.09746        0.77173
H         -2.74737        2.33891       -1.08715
H         -4.18193        1.91487       -0.44144
H         -0.59612        2.53771        0.02771
H          2.04079        3.45263        0.29533
H          3.98269        0.14072        0.39633
