25
Coordinates from ORCA-job ./opt_b97-3c_parallel
N          2.58173       -2.71421       -0.51658
C          2.97207       -1.64026       -0.50093
C          2.27208       -0.41698       -0.23962
C          3.00330        0.77454        0.05689
N          3.91266        1.37403        0.22138
N          1.97312        1.19253        0.12911
C          0.86476        1.30530        0.13547
C         -0.26983        2.04125        0.35633
C         -1.54443        1.79944       -0.08259
N         -2.17354        2.57685       -0.54872
N         -2.21512        0.91994        0.00639
C         -2.30910       -0.18942        0.02601
C         -3.46970       -0.85154        0.22320
C         -3.28698       -2.16759        0.18897
N         -1.99438       -2.38500       -0.03108
C         -1.31338       -1.18692       -0.14540
N         -0.07283       -0.87977       -0.35265
C          0.94837       -0.09557       -0.18123
H          4.37772        2.23323        0.51029
H          4.63575        0.65921        0.15813
H         -0.12850        2.94976        0.93963
H         -3.17173        2.75535       -0.44865
H         -1.74589        3.47285       -0.77957
H         -4.43375       -0.37395        0.38996
H         -3.94115       -3.04621        0.29900
