27
Coordinates from ORCA-job ./opt_b97-3c_parallel
N         -3.82547        2.34751        0.00548
C         -2.76454        1.92275        0.00445
C         -1.43653        1.33291        0.00296
C         -0.41408        2.28530        0.00489
N         -0.59256        3.38944        0.00829
C          0.97995        2.30804        0.00225
C          1.96843        1.26570       -0.00126
N          3.27189        1.72011       -0.00360
C          4.12641        0.71242       -0.00479
C          3.39465       -0.39404       -0.00283
C          2.05177       -0.15232       -0.00085
C          1.06889       -1.21946        0.00096
C          1.61228       -2.55646        0.00277
N          2.00140       -3.63116        0.00472
C         -0.38389       -1.13467       -0.00103
N         -1.06697       -2.34208       -0.00362
C         -2.42871       -2.13459       -0.00549
N         -3.23601       -2.88422       -0.00755
N         -2.60906       -0.76980       -0.00354
C         -1.38684       -0.11659       -0.00101
H         -1.54724        3.74809        0.01220
H          0.00794        4.21391        0.00795
H          1.52946        3.26428        0.00258
H          5.21561        0.87197       -0.00685
H          3.86212       -1.37603       -0.00310
H         -3.13016       -3.89843       -0.01016
H         -4.23901       -2.70032       -0.00849
