18
Coordinates from ORCA-job ./opt_b97-3c_parallel
C         -3.15275        0.98668       -0.08622
C         -2.85230       -0.40302       -0.23792
C         -1.81623       -0.72470       -0.04744
N         -0.93516       -1.74320       -0.04740
C          0.06667       -2.20435       -0.09300
N          1.03980       -1.68419       -0.08343
C          1.83195       -0.60880        0.10410
N          3.03372       -0.37259       -0.43130
C          2.76433        0.69289       -0.20314
N          2.18890        1.60875        0.09648
C          1.26864        0.70606        0.45048
N         -0.06029        0.88713        0.57108
C         -1.35220        0.67010        0.26301
N         -2.30026        1.61526        0.21417
H         -4.09231        1.50810       -0.22495
H         -3.61446       -1.11734       -0.53273
H          0.18474       -3.04343        0.57581
H          3.68445        1.18439       -0.48839
