30
Coordinates from ORCA-job ./opt_b97-3c_parallel
N          2.16756        4.09132        0.97967
C          1.62150        3.13871        0.66828
C          0.95168        1.94479        0.24313
C          1.67946        0.69817        0.03443
C          3.11212        0.68376        0.10686
C          3.72623       -0.52136       -0.10311
N          5.05612       -0.61992        0.05020
C          2.62456       -1.31538       -0.28572
C          2.79112       -2.72945       -0.43939
N          2.87123       -3.86251       -0.55893
C          1.34084       -0.67750       -0.23027
N          0.21012       -1.51055       -0.20327
C         -1.14653       -1.24016       -0.09888
N         -2.14737       -2.17136        0.13088
C         -3.37093       -1.52299        0.12993
N         -4.17019       -2.26550        0.32612
C         -3.14077       -0.13450       -0.13103
C         -4.14592        0.87729       -0.20929
N         -4.96855        1.66765       -0.23566
C         -1.73354        0.03211       -0.30969
N         -1.12451        1.11155       -0.65374
C         -0.43514        2.04827       -0.10622
N         -1.25738        2.78356       -0.16314
H          3.67677        1.59200        0.29656
H          5.57194        0.06318        0.60415
H          5.49932       -1.52930        0.17892
H         -5.08741       -1.89403        0.58348
H         -4.32128       -3.26495        0.17468
H         -2.13711        3.24293       -0.39812
H         -0.54209        3.50802       -0.22922
