27
Coordinates from ORCA-job ./opt_b97-3c_parallel
N         -4.51803        0.83882        0.08903
C         -3.55343        0.30662        0.00153
N         -3.13846       -0.92154        0.12227
C         -2.48284       -2.03742        0.22341
C         -1.51423       -0.92286        0.08796
C         -0.02617       -1.14913        0.09998
C          1.21637       -0.56687        0.04485
C          2.31423       -1.37267       -0.11026
N          2.77670       -2.37381       -0.23604
N          3.41261       -0.54332       -0.08598
C          2.96933        0.76278        0.08132
N          3.81464        1.47926        0.12893
C          1.59588        0.74451        0.14499
C          0.75091        1.81476        0.06671
N         -0.33432        1.95137       -0.08259
C         -1.35040        1.53525       -0.19775
C         -2.11509        0.32289       -0.03889
H         -5.45964        0.44480        0.07941
H         -4.65019        1.84829        0.17258
H         -2.70917       -3.10837        0.34462
H         -0.09939       -2.22814        0.22251
H          2.22517       -3.18897       -0.51028
H          3.72742       -2.73648       -0.13105
H          4.83002        1.38996        0.21045
H          3.64668        2.48778        0.13644
H          0.99425        2.87631        0.22998
H         -1.84282        2.41183       -0.64879
