36
Coordinates from ORCA-job ./opt_b97-3c_parallel
N         -6.02623       -0.93489        0.41788
C         -4.93443       -0.60401        0.34645
C         -3.55876       -0.20186        0.21442
C         -3.06765        0.96051       -0.35104
N         -3.72501        1.74918       -0.76780
C         -1.63670        0.90276       -0.26051
C         -0.89975        2.00900       -0.84399
C          0.43754        2.32523       -0.43372
C          0.86932        1.70717        0.78259
N          0.94646        2.28252        1.71944
C          1.65740        0.74781        0.06632
C          2.99897        0.85433       -0.15593
N          3.68750        1.71704       -0.08241
C          3.30086       -0.51775       -0.44762
C          4.60720       -1.02417       -0.75611
N          5.70852       -1.31940       -0.81832
C          2.31171       -1.47245       -0.36079
N          2.25708       -2.81623       -0.41736
C          1.28177       -0.61556       -0.05609
C         -0.02366       -1.06606        0.36692
C         -1.26922       -0.30764        0.30389
C         -2.46124       -1.04369        0.63596
N         -2.59643       -2.05644        1.06589
H         -3.65417        2.66314       -1.21056
H         -4.71840        1.53822       -0.68566
H         -1.39980        2.71195       -1.50180
H          0.95121        3.17524       -0.87385
H          0.95396        3.29900        1.65553
H          1.91852        1.98581        1.78727
H          3.74166        2.69490       -0.35664
H          4.62779        1.33497       -0.16261
H          3.02537       -3.34466       -0.82746
H          1.38477       -3.28761       -0.64588
H         -0.10872       -2.12595        0.58295
H         -3.45728       -2.54619        0.82806
H         -1.97994       -2.73493        1.50827
