32
Coordinates from ORCA-job ./opt_b97-3c_parallel
N          3.64033        2.79804        0.69133
C          3.29118        1.74493        0.42126
C          2.93234        0.40180        0.09210
C          3.78017       -0.61371       -0.25753
N          4.83554       -0.89305       -0.44077
N          3.19186       -1.79525       -0.44670
C          1.85445       -1.51719       -0.20853
C          0.93067       -2.62751       -0.19634
C         -0.52234       -2.63162        0.06803
N         -0.63694       -3.74011        0.09996
C         -1.52827       -1.64168        0.15235
C         -2.84181       -2.22238        0.31985
N         -3.45482       -2.56168        1.22393
C         -1.55332       -0.24118        0.07383
C         -2.67096        0.56729       -0.07788
C         -4.09841        0.47546       -0.24332
N         -4.79103        0.17925       -1.10305
C         -2.23170        1.93804       -0.11252
N         -2.74992        2.91472       -0.23008
C         -0.86186        1.94572        0.04607
C          0.03172        3.07225        0.08627
N          0.71801        3.98606        0.08939
C         -0.39444        0.58855        0.18428
N          0.63238        0.26336        0.38727
C          1.60760       -0.15256        0.13303
H          5.50050       -0.15449       -0.20683
H          5.39801       -1.70171       -0.70645
H          1.46418       -3.57219       -0.36870
H         -0.17395       -4.64723        0.05725
H         -1.59804       -3.93933        0.37827
H         -3.73031        2.76997       -0.47004
H         -2.61347        3.92325       -0.17188
