28
Coordinates from ORCA-job ./opt_b97-3c_parallel
N          0.00559       -3.62876        0.31710
C          0.02033       -2.49242        0.20943
C         -0.02429       -1.05977        0.09368
C          1.28863       -0.38595        0.02150
C          2.48235       -1.19051       -0.04078
C          3.58222       -0.40653       -0.14902
N          4.86048       -0.78118       -0.29273
C          3.15833        0.84717       -0.13411
C          1.79679        0.90364       -0.02767
N          1.33164        2.15322        0.04977
C         -0.01970        2.17834        0.12422
N          0.02261        3.28113        0.22379
N         -1.37122        2.07309        0.18706
C         -1.93770        0.81766        0.07594
N         -3.30841        0.69802        0.04819
C         -3.63679       -0.64642       -0.02949
N         -4.69304       -0.97610       -0.08400
C         -2.47417       -1.37177       -0.06603
C         -1.40096       -0.51780        0.02506
H          2.51392       -2.27575       -0.04203
H          5.16728       -1.72132       -0.04277
H          5.62844       -0.13539       -0.11158
H          3.81536        1.71171       -0.23029
H          0.57852        3.73326        0.95417
H         -0.21417        4.03390       -0.42583
H         -5.46056       -0.66225       -0.68326
H         -5.07095       -1.78599        0.41423
H         -2.43027       -2.26596       -0.68880
