30
Coordinates from ORCA-job ./opt_b97-3c_parallel
N          1.54680       -2.38049       -0.97472
C          0.95118       -1.66945       -0.36731
C         -0.40153       -2.13164       -0.23553
C         -1.25656       -1.47536        0.59156
C         -1.97488       -0.38825        0.18961
C         -3.39953       -0.33711        0.12298
N         -4.40615       -0.76944        0.21432
N         -3.09259        0.70750       -0.12422
C         -2.63302        1.70798       -0.31083
C         -1.50371        0.86458       -0.08025
C         -0.25359        1.46599       -0.12482
C          1.01665        0.79884        0.07052
C          2.11677        1.60633        0.08805
N          2.53796        2.62904        0.00177
N          3.20610        0.91274        0.39277
C          2.68898       -0.36564        0.55500
N          3.65451       -0.85416        0.80035
C          1.34453       -0.51833        0.26409
H          2.07899       -2.64607       -1.80404
H          1.17778       -3.25550       -0.59708
H         -0.71947       -3.04345       -0.74234
H         -1.60492       -2.00648        1.47485
H         -5.27557       -0.26341        0.37115
H         -4.49246       -1.66205        0.69548
H         -3.12819        2.66602       -0.53148
H         -0.20896        2.53512       -0.30337
H          3.39513        3.17846       -0.07056
H          1.77955        3.30250       -0.11792
H          3.32831       -1.81211        0.65544
H          4.67034       -0.92145        0.88298
