31
Coordinates from ORCA-job ./opt_b97-3c_parallel
N         -1.95136        1.79314       -1.52989
C         -0.97929        1.54484       -0.63516
C          0.06038        2.35836       -0.46343
C          1.07581        2.08328        0.40204
C          1.95573        0.97090        0.18706
C          3.17843        0.91147        0.92794
N          3.68891        0.01063        0.55636
C          2.84530       -0.34909       -0.05159
C          1.64866       -0.04026       -0.79610
C          0.66076       -1.08734       -0.96215
N          1.05109       -2.04570       -1.34962
C         -0.57373       -0.87526       -0.23644
C         -1.42113       -1.86951        0.18443
N         -1.50727       -2.97104        0.18846
C         -2.46410       -1.22983        0.79399
C         -2.33041        0.09454        0.75906
N         -3.21891        0.93908        1.30957
C         -1.18077        0.38646        0.07770
H         -2.86579        1.36196       -1.40364
H         -2.10300        2.74380       -1.86076
H          0.13433        3.25951       -1.06811
H          1.36573        2.81036        1.15394
H          3.71878        1.49823        1.68676
H          3.12127       -1.39484        0.16982
H          1.94524       -2.37547       -1.71049
H          0.32099       -2.52379       -1.87769
H         -0.50422       -3.09566        0.06127
H         -1.90326       -3.89341        0.35947
H         -3.30487       -1.73405        1.27179
H         -3.90195        0.59990        1.98445
H         -2.93244        1.87679        1.58425
