32
Coordinates from ORCA-job ./opt_b97-3c_parallel
N          5.40877       -0.67176        0.54697
C          4.30896       -0.38147        0.44434
C          2.91728       -0.05121        0.28242
C          2.36707        1.11187       -0.22832
N          2.98225        1.97375       -0.55697
C          0.94073        0.95321       -0.21327
C          0.13289        2.07147       -0.68557
C         -1.27521        2.25413       -0.41304
C         -1.89311        1.46165        0.61412
N         -2.46129        2.00961        1.38528
C         -2.42806        0.37779       -0.15468
C         -3.73273        0.22841       -0.52311
N         -3.68595       -1.04534       -0.83997
C         -2.50977       -1.75959       -0.81006
N         -2.75184       -2.80342       -1.07617
C         -1.69795       -0.72817       -0.43572
C         -0.57415       -1.07570        0.25070
C          0.65245       -0.31121        0.25668
C          1.86776       -0.98942        0.61671
N          1.99923       -2.02644        0.98546
H          2.89457        2.94872       -0.83501
H          3.97609        1.80599       -0.40682
H          0.62687        2.88279       -1.21157
H         -1.76782        3.12995       -0.82920
H         -2.12742        2.97179        1.44264
H         -3.32626        1.98036        1.92427
H         -4.64388        0.84644       -0.52355
H         -3.51785       -3.45811       -0.92073
H         -1.91398       -3.36967       -1.20656
H         -0.52421       -2.06665        0.69337
H          2.92948       -2.21663        0.61336
H          1.87425       -2.65013        1.77984
