29
Coordinates from ORCA-job ./opt_b97-3c_parallel
N         -4.22086       -1.34822       -0.58150
C         -3.29766       -0.79064       -0.34457
N         -3.19211        0.42844        0.09957
C         -2.80841        1.59940        0.50516
C         -1.61020        0.81501        0.12586
C         -0.22237        1.37556        0.23993
N         -0.15144        2.60058        0.79092
C          1.09737        1.06735        0.02979
C          2.08912        1.62666       -0.72283
N          3.23755        1.00370       -0.85599
C          3.19907       -0.21187       -0.21303
N          4.20659       -0.63201       -0.39066
C          1.88780       -0.04582        0.14620
C          1.28356       -1.23242        0.46401
N          1.32557       -2.05043        1.20323
N          0.24368       -1.75155       -0.11278
C         -0.86730       -1.40551       -0.68487
C         -1.89771       -0.46631       -0.31902
H         -4.29587       -2.19366       -1.14802
H         -5.16776       -1.15394       -0.25385
H         -3.25726        2.53069        0.88434
H         -0.91284        3.27035        0.68539
H          0.72245        3.12446        0.81726
H          2.20709        2.59205       -1.23986
H          5.13334       -0.29382       -0.65283
H          4.32406       -1.62299       -0.17697
H          1.48937       -1.92168        2.20172
H          1.23022       -3.05651        1.06187
H         -0.96630       -2.49520       -0.80664
