25
Coordinates from ORCA-job ./opt_b97-3c_parallel
N          4.63322        2.21510       -0.90594
C          3.92429        1.37797       -0.58985
C          3.00655        0.35519       -0.20706
C          3.45030       -0.96700        0.14884
N          4.25072       -1.71223        0.29667
N          2.40116       -1.76096        0.44036
C          1.31128       -0.93743        0.25687
N          0.08533       -1.51596        0.29432
C         -1.18284       -0.93598        0.12009
N         -2.24690       -1.79440       -0.11330
C         -3.42517       -1.06315       -0.16838
N         -4.29615       -1.71413       -0.38779
C         -3.12077        0.31402        0.08451
C         -4.06278        1.38759        0.06496
N         -4.83228        2.22853       -0.00119
C         -1.70857        0.40198        0.28277
N         -1.13416        1.60002        0.69805
C          0.20254        1.84935        0.50457
N          0.77087        1.26704       -0.49813
C          1.63738        0.37716       -0.17370
H          4.98695       -1.19018       -0.17998
H          4.56184       -2.68335        0.30806
H         -4.64442       -2.65410       -0.18557
H         -5.10474       -1.21465       -0.76805
H          0.27433        2.86084        0.93198
