28
Coordinates from ORCA-job ./opt_b97-3c_parallel
N         -3.41292        2.26882       -0.25053
C         -2.96407        1.78975        0.68401
C         -2.27957        0.57168        0.34643
C         -3.14748       -0.49482        0.42514
N         -4.16559       -0.88480        0.64953
N         -2.41790       -1.58932        0.04339
C         -1.14516       -1.11386       -0.22288
N         -0.69644       -2.41646       -0.41718
C          0.68565       -2.57199       -0.38665
N          1.04565       -3.59128       -0.62640
N          1.59501       -1.72272       -0.00397
C          2.03245       -0.51114        0.17779
C          3.41607       -0.26597        0.46200
C          3.62042        1.15834        0.52128
N          4.37560        1.95155        0.69241
N          2.40591        1.77809        0.26198
C          1.53252        0.76466        0.10315
C          0.12058        1.06171       -0.15021
C         -0.15398        2.38460       -0.64864
N         -0.10746        2.29892       -1.78814
C         -0.99192        0.24170       -0.03620
H         -4.72710       -1.54394        1.19746
H         -4.81844       -0.12240        0.43972
H          1.99151       -3.91320       -0.84765
H          0.46052       -4.40796       -0.82311
H          4.18521       -1.02169        0.59986
H          4.41786        2.93072        0.39675
H          5.22921        1.82216        1.24307
