29
Coordinates from ORCA-job ./opt_b97-3c_parallel
N          4.24341        0.55245        0.24272
C          3.18738       -0.25719        0.06776
C          3.27649       -1.58111       -0.04083
C          2.09761       -2.17927       -0.17958
C          1.14169       -1.21625       -0.15469
C         -0.28183       -1.48781       -0.21136
C         -1.42361       -0.58843       -0.11478
C         -2.71668       -1.20220       -0.10067
N         -3.17933       -2.20481       -0.13583
C         -3.63266       -0.20142       -0.00000
C         -2.99771        0.96067        0.04385
C         -1.64326        0.77535       -0.02649
C         -0.61851        1.78124       -0.05050
N         -0.93360        2.84883       -0.02122
N          0.44548        2.05578       -0.10114
C          1.22636        1.28100       -0.04245
C          1.85461        0.00885       -0.01543
H          5.17886        0.24253       -0.01308
H          4.16825        1.54776        0.04258
H          4.21834       -2.12466       -0.01496
H          1.93129       -3.24819       -0.28665
H         -0.52679       -2.54204       -0.29276
H         -2.43624       -2.54966        0.46830
H         -4.05078       -2.60177        0.20946
H         -4.71565       -0.31711        0.04295
H         -3.49102        1.92600        0.12923
H         -0.52554        3.77128       -0.15872
H         -1.47056        2.63687       -0.85927
H          1.94122        2.11294        0.04997
