29
Coordinates from ORCA-job ./opt_b97-3c_parallel
N         -4.42377       -0.66712       -0.03676
C         -3.46089       -0.12605       -0.02612
C         -3.63725        1.22414       -0.06401
C         -2.45662        1.81968       -0.05025
C         -1.46345        0.88748       -0.00743
C         -0.09662        1.31800        0.02014
C          1.11373        0.54996        0.01938
C          2.31508        1.34091        0.00580
N          2.90265        2.27497       -0.00098
N          3.40573        0.54259       -0.02100
C          2.90086       -0.74505       -0.01742
N          3.86139       -1.29241       -0.04133
C          1.47922       -0.76273        0.01547
C          0.86276       -2.05603        0.04836
C         -0.46279       -2.40568        0.08589
C         -1.66421       -1.74154        0.06750
C         -2.05522       -0.42004        0.01336
H         -4.39126       -1.66690       -0.22522
H         -5.39239       -0.37766       -0.16226
H         -4.59218        1.75094       -0.09956
H         -2.30945        2.89723       -0.07478
H          0.03804        2.39656        0.01226
H          2.10182        2.89160        0.12746
H          3.73092        2.86696        0.04450
H          4.87148       -1.16761       -0.10331
H          3.68262       -2.27352       -0.25092
H          1.55172       -2.89553        0.05568
H         -0.59756       -3.48339        0.12639
H         -2.49898       -2.43671        0.09445
