32
Coordinates from ORCA-job ./opt_b97-3c_parallel
N         -5.39568       -0.29503       -0.28941
C         -4.25909       -0.18318       -0.24756
C         -2.83100       -0.02627       -0.15381
C         -2.13318        1.14233       -0.40240
N         -2.55053        2.12707       -0.68311
C         -0.76724        0.83300       -0.12032
C          0.16425        1.89203        0.08816
N          1.13028        1.73560        0.92203
C          2.33056        1.40796        0.61004
N          2.86108        2.31076        0.96102
C          2.68826        0.22142       -0.10876
C          3.95199       -0.05985       -0.52139
C          3.96171       -1.32197       -0.91799
C          2.76897       -1.88775       -0.79104
C          1.88518       -0.96746       -0.28568
C          0.60915       -1.28832        0.37115
N          0.51606       -2.37578        0.55963
C         -0.60943       -0.48331        0.21594
C         -1.92566       -1.08475        0.26200
N         -2.34028       -2.08892        0.49144
H         -3.54876        2.06289       -0.88056
H         -2.13297        2.64217       -1.45691
H          0.07106        2.97895       -0.05806
H          3.30802        1.50968        1.40296
H          2.61990        2.95831        1.70910
H          4.80089        0.62002       -0.51445
H          4.84001       -1.83179       -1.30676
H          2.53053       -2.90690       -1.08698
H         -0.27126       -2.74095        0.02663
H          1.28697       -3.02861        0.43535
H         -3.26702       -2.13517        0.91241
H         -1.66693       -2.20407        1.24798
