32
Coordinates from ORCA-job ./opt_b97-3c_parallel
N         -4.10138       -0.26460       -2.87073
C         -3.50613        0.03256       -1.94224
C         -2.74101        0.35836       -0.78059
C         -3.35772        0.75769        0.45318
N         -4.20965        1.00900        1.10827
N         -2.42629        0.87541        1.03383
C         -1.44206        0.97425        0.53973
C         -0.72270        2.21320        0.50600
C          0.49919        2.35491       -0.27321
N          0.50141        3.45514       -0.42588
C          1.50033        1.39620       -0.50343
C          2.71876        1.97373       -1.01642
N          3.15416        1.72037       -2.04343
C          1.57834       -0.00377       -0.07358
C          2.86830       -0.58812        0.15949
C          4.29924       -0.52731        0.24666
N          5.19327       -0.76013        0.92219
C          2.58636       -1.95473        0.51930
N          2.72840       -3.01290        0.81964
N          1.26659       -2.19373        0.47497
C          0.65440       -1.00568        0.10889
C         -0.75044       -1.04048       -0.20658
C         -1.51506       -2.25253       -0.14822
N         -2.08765       -3.24006       -0.11556
C         -1.31079        0.19791       -0.65626
H         -4.42926        1.87024        1.60535
H         -5.09467        0.53993        0.92470
H         -1.22489        3.07238        0.96249
H         -0.22867        4.16739       -0.42502
H          1.25447        3.82881       -1.00329
H          3.69557       -2.94943        1.14303
H          2.51065       -4.00948        0.77971
