27
Coordinates from ORCA-job ./opt_b97-3c_parallel
N          0.41775        4.23621        1.04908
C          0.16472        3.17956        0.69786
C         -0.18588        1.86989        0.23131
C          0.82324        0.84013        0.04286
C          2.21926        1.15285        0.11333
C          3.08503        0.10812       -0.07375
N          4.40255        0.36248       -0.09325
C          2.18999       -0.92524       -0.18285
C          2.67078       -2.27324       -0.24314
N          3.01706       -3.36111       -0.29194
C          0.79771       -0.58111       -0.15606
N         -0.14375       -1.60831       -0.01562
C         -1.52931       -1.57249        0.04731
C         -2.36048       -2.58696        0.36229
C         -3.63125       -2.24822        0.17256
N         -3.62740       -1.00456       -0.29765
C         -2.33826       -0.51739       -0.42196
N         -1.88474        0.59126       -0.89670
C         -1.52900        1.63236       -0.22401
N         -2.43381        2.27043       -0.28069
H          2.56045        2.17173        0.27203
H          4.78129        1.17701        0.38750
H          5.07316       -0.39902        0.00588
H         -2.03174       -3.55409        0.73783
H         -4.38027       -3.01743        0.41732
H         -1.91647        3.12771       -0.47579
H         -3.39628        2.55724       -0.10493
