31
Coordinates from ORCA-job ./opt_b97-3c_parallel
N          4.22721       -2.30948        0.61481
C          3.45886       -1.48292        0.43300
C          2.47152       -0.47224        0.18252
C          1.09936       -0.57037        0.22947
C          0.48652       -1.76385        0.57656
C         -0.75536       -2.16012       -0.02490
N         -1.03894       -3.21342        0.17006
C         -1.36589       -1.43066       -0.99807
C         -2.23070       -0.68738       -0.26145
C         -3.54995       -1.00724       -0.15551
C         -3.78319        0.23945        0.36998
N         -4.85656        0.43227        0.56728
C         -2.95911        1.22461        0.85507
C         -1.89477        0.54181        0.35754
N         -0.70394        1.22640        0.14876
C          0.53651        0.72931       -0.09321
C          1.58950        1.56709       -0.37740
C          1.53110        2.96536       -0.69446
N          1.51822        4.08109       -0.94272
C          2.83060        0.85544       -0.23667
N          3.85064        1.26053       -0.38635
H          1.05274       -2.54892        1.07516
H         -0.39862       -4.00521        0.15925
H         -1.93542       -3.56153        0.50516
H         -1.65973       -1.87009       -1.94944
H         -4.10255       -1.37765       -1.01780
H         -5.07433        1.39971        0.33522
H         -5.70761       -0.10514        0.41367
H         -3.11151        2.27368        0.60475
H          3.96511        2.26886       -0.29761
H          4.75767        0.83826       -0.19551
