29
Coordinates from ORCA-job ./opt_b97-3c_parallel
N         -4.57373       -0.99947        0.75836
C         -3.67060       -0.30080        0.81760
C         -2.37349        0.09911        0.35282
C         -2.60101        1.49433        0.08664
N         -3.37326        2.59554       -0.16326
C         -1.17384        1.62163        0.16072
C         -0.48814        0.77932       -0.04139
N          0.43642        0.64099       -1.00019
C          1.51693        0.57251       -0.21251
N          2.40572        1.56529       -0.05170
C          3.33803        1.01366        0.14111
N          4.60807        1.49124        0.28485
C          3.07428       -0.38957        0.22710
C          2.05034       -0.78247        0.09714
C          1.45057       -2.05137        0.01778
C          0.10509       -2.45346       -0.08154
N         -0.05227       -3.80850       -0.18953
C         -1.11247       -1.75531        0.02720
C         -1.39159       -0.38265        0.17768
H         -2.95037        3.51546       -0.10888
H         -4.37770        2.52116       -0.04012
H         -0.66274        2.53815        0.44349
H          5.39005        0.84540        0.30020
H          4.80083        2.46439        0.07517
H          3.87385       -1.10151        0.41043
H          2.16272       -2.87370        0.06802
H         -0.97255       -4.17866       -0.40167
H          0.75499       -4.37964       -0.41417
H         -1.99258       -2.39781        0.04396
