26
Coordinates from ORCA-job ./opt_b97-3c_parallel
N         -3.04410        2.44865       -0.68089
C         -3.07765        1.77885        0.24716
C         -2.36054        0.53901        0.14583
C         -2.99318       -0.66542       -0.09532
N         -4.03205       -1.02274       -0.22884
C         -2.16602       -1.75906       -0.18527
C         -0.97106       -1.13017        0.00411
N          0.11962       -1.92964        0.08493
C          1.45996       -1.52349        0.14413
N          2.45345       -2.41005        0.48179
C          3.66663       -1.75342        0.39475
N          3.43762       -0.45887       -0.03549
C          2.08276       -0.28266       -0.23106
C          1.49361        0.84860       -0.73387
C          1.70418        1.20772       -1.76328
N          2.42018        1.72701       -2.48875
C          0.71352        1.52662        0.16856
N          0.80585        2.35243        0.90060
N         -0.22608        1.05979        0.52772
C         -0.96303        0.26725        0.27984
H         -4.66253       -1.72807        0.15254
H         -4.62156       -0.24498       -0.52556
H         -2.27992       -2.50982       -0.96880
H          4.60459       -2.27954        0.63349
H          1.63041        2.95165        0.89523
H          0.00650        2.97385        1.02495
