27
Coordinates from ORCA-job ./opt_b97-3c_parallel
N         -3.46862        2.32462        0.05838
C         -2.81622        1.38650        0.04713
C         -2.02888        0.18676        0.05914
C         -2.70414       -1.05911        0.32190
N         -3.75340       -1.34711        0.53255
C         -1.96795       -2.21785        0.38323
C         -0.77148       -1.62619        0.09611
N          0.13714       -2.55014       -0.25814
C          1.19602       -1.98818       -0.88887
C          2.27697       -1.84525        0.00907
C          2.56431       -0.47253        0.22600
C          3.86360       -0.08577        0.63770
C          3.92283        1.25823        0.51189
C          2.74339        1.68957        0.07754
C          1.82973        0.66230       -0.05977
C          0.37776        0.78443       -0.30384
C          0.05830        2.15918       -0.56660
N         -0.11808        3.06075       -1.24822
C         -0.71233       -0.19090       -0.07744
H         -4.44037       -2.08099        0.37013
H         -4.24088       -0.45895        0.42658
H         -2.27983       -3.12506       -0.13905
H          1.31998       -3.08169       -0.91092
H          2.93062       -2.65968        0.31037
H          4.68451       -0.77258        0.81881
H          4.80076        1.87520        0.68764
H          2.54885        2.73858       -0.13395
