26
Coordinates from ORCA-job ./opt_b97-3c_parallel
N          3.66677        2.68298        0.32579
C          3.00828        1.75615        0.22920
C          2.21464        0.57769        0.06670
C          2.99228       -0.44896       -0.39280
N          3.99830       -0.81582       -0.70007
N          2.28454       -1.57214       -0.53819
C          0.98471       -1.21705       -0.17610
N          0.53669       -2.52541       -0.10206
C         -0.69777       -2.63463        0.51529
N         -1.48419       -1.71162        0.97778
C         -2.11299       -0.73767        0.39762
C         -3.43467       -0.80891        0.05824
C         -3.69358        0.41281       -0.51480
N         -4.42824        1.11849       -0.94936
N         -2.54904        1.11605       -0.55606
C         -1.49876        0.49322        0.00712
C         -0.18519        0.90289        0.22831
C         -0.17082        1.98740        0.47981
N         -0.09808        2.65881        1.40173
C          0.91558        0.13278        0.07589
H          4.61327       -0.00051       -0.61611
H          4.59845       -1.53909       -1.10564
H         -1.02016       -3.68294        0.63635
H         -3.85874       -1.71830       -0.36544
H         -4.56179        2.12004       -0.79153
H         -5.30689        0.80455       -1.36766
