22
Coordinates from ORCA-job ./opt_b97-3c_parallel
N          0.01008        2.87880       -0.10510
C          0.11032        1.78666       -0.26450
N         -1.14838        1.56420        0.25166
C         -1.71666        0.29190        0.20147
C         -3.10918        0.15081        0.45759
C         -3.46176       -1.12450        0.16979
C         -2.37930       -1.77238       -0.24173
C         -1.27653       -0.96283       -0.20380
C          0.07343       -1.40706       -0.46146
C          1.25502       -0.76731       -0.20350
N          2.02000       -1.69170        0.35243
C          3.18957       -1.07201        0.50395
N          3.16151        0.22654        0.07686
C          1.88321        0.43389       -0.38893
N          1.21972        1.44906       -0.84129
H         -0.87373        3.39222       -0.14509
H          0.72676        3.60478       -0.14932
H         -3.77134        0.96998        0.72280
H         -4.46508       -1.54005        0.24273
H         -2.37168       -2.81747       -0.54762
H          0.12934       -2.43008       -0.83466
H          4.01116       -1.65947        0.94592
