25
Coordinates from ORCA-job ./opt_b97-3c_parallel
N         -1.38556        1.72788        1.43801
C         -0.99678        1.12053        0.60470
C         -0.50731        1.77192       -0.57210
C          0.90907        1.68647       -0.78462
C          1.76319        0.75125       -0.08552
C          3.10516        0.97844        0.00795
N          3.62569       -0.14781        0.47829
C          2.69265       -1.14782        0.68312
C          1.44242       -0.58973        0.32085
C          0.31978       -1.49315        0.16586
C         -1.00667       -1.10199       -0.22571
C         -2.00114       -2.06987       -0.52167
C         -3.17617       -1.40723       -0.66805
C         -2.95383       -0.11225       -0.46646
C         -1.63136        0.11363       -0.18884
H         -1.64453        2.69090        1.23383
H         -2.25073        1.19958        1.53101
H         -1.06427        2.53352       -1.11146
H          1.37164        2.47782       -1.36591
H          3.98181        1.63716       -0.08153
H          3.15768       -2.09195        1.00334
H          0.50821       -2.55283        0.30766
H         -1.83883       -3.14286       -0.52353
H         -4.13645       -1.86072       -0.90105
H         -3.71543        0.66202       -0.51532
