29
Coordinates from ORCA-job ./opt_b97-3c_parallel
N          3.30902        2.28766        0.44591
C          2.63059        1.58801        1.04256
C          2.16256        0.41359        0.36334
C          3.10870       -0.58005        0.25996
N          4.13971       -0.93855        0.46686
N          2.48674       -1.62464       -0.36417
C          1.20518       -1.17209       -0.61353
N          0.19280       -1.85248       -1.04803
C         -0.67086       -2.50849       -0.34052
N         -0.45445       -3.58675       -0.41762
C         -1.80535       -1.95883        0.36439
C         -2.16349       -0.55217        0.31988
C         -3.48760       -0.18796        0.69537
C         -3.61786        1.20682        0.36704
N         -4.39231        1.99500        0.41462
N         -2.41240        1.66306       -0.16710
C         -1.58123        0.60315       -0.14748
C         -0.18642        0.84692       -0.49387
C          0.24200        2.04111       -1.16560
N          0.28800        3.13590       -0.84312
C          0.94523        0.11208       -0.21342
H          4.76821       -0.13307        0.39348
H          4.72410       -1.68566        0.85115
H         -1.38302       -3.95259       -0.63187
H          0.18007       -4.37807       -0.53290
H         -2.50488       -2.65302        0.82505
H         -4.26403       -0.84085        1.08532
H         -4.37086        2.96918        0.10655
H         -5.31226        1.87644        0.84423
