30
Coordinates from ORCA-job ./opt_b97-3c_parallel
N          4.22026       -1.72569       -1.37849
C          3.98308       -1.29636       -0.34610
C          3.06680       -0.21462       -0.12448
C          3.49779        1.09520       -0.03602
N          4.45243        1.64944       -0.11346
C          2.52070        2.02795        0.21743
C          1.43794        1.19914        0.19953
N          0.19533        1.72482        0.34039
C         -0.87172        0.85413        0.17080
N         -1.75943        1.92176        0.16619
C         -3.07452        1.55751       -0.09657
N         -3.47246        2.59662       -0.03763
C         -2.95177        0.20105       -0.26482
C         -3.97496       -0.16693       -0.50291
N         -4.60504       -0.43262       -1.41987
C         -1.69870       -0.20534       -0.06407
C         -1.22222       -1.47167       -0.10627
C         -1.80035       -2.39539       -0.35975
N         -2.60873       -3.09459        0.04623
C          0.10549       -1.73360        0.21057
N          0.56743       -2.40527        0.97768
N          1.04547       -1.15637        0.01991
C          1.64562       -0.20778        0.02719
H          5.01702        2.47202        0.09833
H          5.07633        0.99472       -0.58658
H          2.62953        2.77086        1.00965
H         -3.59162        3.54706        0.31967
H         -4.35166        2.38340       -0.51620
H         -0.12063       -3.09005        1.29109
H          1.44384       -2.91895        0.88015
