25
Coordinates from ORCA-job ./opt_b97-3c_parallel
N         -0.46409        3.24030        0.00055
C          0.03152        2.25683       -0.01298
C          1.40265        1.85678        0.05927
C          1.89401        0.55680        0.01476
N          3.21888        0.34543        0.00405
C          3.47073       -1.01742       -0.02360
N          4.52635       -1.34937       -0.03991
N          2.25318       -1.68151       -0.01381
C          1.28009       -0.76174        0.00039
N          0.04068       -1.34566        0.05396
C         -1.28756       -0.87883        0.05135
C         -2.32894       -1.75941        0.13041
C         -3.46656       -0.99080        0.02208
N         -4.55508       -1.21264        0.00210
N         -3.11492        0.34990       -0.10381
C         -1.74001        0.45210       -0.09197
N         -0.94588        1.45068       -0.20988
H         -1.32277        3.79332       -0.01173
H          0.28998        3.92822        0.03817
H          2.11118        2.68104        0.12483
H          5.34679       -0.78924       -0.28462
H          4.90476       -2.27741        0.16620
H         -2.27216       -2.74901       -0.32282
H         -5.33571       -0.60940       -0.27653
H         -5.01411       -2.09712        0.24301
