35
Coordinates from ORCA-job ./opt_b97-3c_parallel
N          4.27183        2.94409       -0.98601
C          3.79468        1.95197       -1.29595
C          3.06689        0.91060       -0.62605
C          1.73675        0.73210       -0.33370
C          0.77420        1.73482       -0.69901
C         -0.00799        2.13473        0.44232
N          0.21742        3.18559        0.72276
C         -1.35858        1.61799        0.52986
C         -2.38209        2.38734        1.19073
N         -3.17495        2.99521        1.74597
C         -1.66231        0.33168       -0.07257
C         -3.00529       -0.00582       -0.48080
C         -4.09613        0.87877       -0.78433
N         -4.97383        1.55952       -1.05328
C         -3.05776       -1.44018       -0.59645
N         -3.97286       -1.99120       -0.89288
C         -1.83021       -1.95523       -0.23068
C         -1.56670       -3.36640       -0.18490
N         -1.35320       -4.42209        0.19729
C         -0.96214       -0.84660        0.05522
C          0.31805       -1.17161        0.64031
C          1.51648       -0.41715        0.36674
C          2.77369       -1.08274        0.56862
C          3.08361       -2.35418        1.16244
N          3.09065       -3.41816        0.74096
C          3.76071       -0.22439       -0.05638
N          4.84422       -0.45477       -0.08650
H          1.22280        2.54284       -1.27540
H          0.96052        3.87537        0.62269
H         -0.65904        3.70482        0.67899
H         -4.89475       -1.56672       -0.80198
H         -4.07038       -2.96840       -0.62097
H          0.46283       -2.18599        0.99404
H          5.15558       -1.42041        0.00703
H          5.65072        0.09126       -0.38326
