25
Coordinates from ORCA-job ./opt_b97-3c_parallel
N          4.36151        1.86396        0.79492
C          3.53958        1.10401        0.56901
C          2.48011        0.18423        0.29433
C          2.70037       -1.14530       -0.19665
N          3.59559       -1.73054       -0.47706
C          1.59000       -1.93394       -0.37267
C          0.66578       -0.98673       -0.02348
N         -0.61297       -1.41891        0.08203
C         -1.77828       -0.64126        0.15153
N         -3.01019       -1.19093        0.40525
C         -3.95461       -0.21984        0.10382
N         -4.99330       -0.56173        0.28048
C         -3.42347        0.92177       -0.44643
C         -2.08739        0.67217       -0.35233
N         -1.20992        1.62437       -0.85259
C          0.01463        1.75417       -0.23797
N          0.36837        1.22820        0.88851
C          1.12536        0.29123        0.42920
H          3.97449       -2.60781       -0.83255
H          4.39716       -1.17475       -0.17879
H          1.53491       -2.94398        0.03656
H         -5.68636       -0.01738        0.79815
H         -5.50091       -1.37736       -0.06798
H         -3.82516        1.90469       -0.20402
H          0.53775        2.57671       -0.75360
