27
Coordinates from ORCA-job ./opt_b97-3c_parallel
N          2.32024       -3.25560        0.70326
C          2.32176       -2.13987        0.46118
C          2.25978       -0.73745        0.18770
C          3.21708        0.19119       -0.15932
N          4.30097        0.07189       -0.33143
C          2.76123        1.48146       -0.29115
C          1.43512        1.33581        0.00202
N          0.59985        2.45691        0.08677
C         -0.77104        2.32333        0.25419
N         -0.98768        3.40083        0.37568
N         -1.87433        1.64439        0.35298
C         -2.26517        0.41375        0.17754
C         -3.52928        0.03100       -0.16389
C         -3.40676       -1.33709       -0.20866
N         -4.09807       -2.16400       -0.43494
N         -2.15074       -1.72593        0.06341
C         -1.36825       -0.68267        0.32024
N         -0.11807       -0.50528        0.61749
C          1.03775       -0.01514        0.28484
H          4.74376       -0.78874       -0.00624
H          5.01877        0.56354       -0.86555
H          3.07989        2.11164       -1.12261
H         -1.88378        3.83997        0.59526
H         -0.30753        4.16008        0.46060
H         -4.09045        0.56189       -0.93103
H         -4.99788       -2.05438       -0.90343
H         -4.04432       -3.14594       -0.16377
