27
Coordinates from ORCA-job ./opt_b97-3c_parallel
N         -2.20246        3.12070        1.33677
C         -1.54989        2.31547        0.85712
C         -0.71346        1.33573        0.22589
C         -1.17358       -0.04347        0.09883
C         -2.52908       -0.40400        0.38196
C         -2.75683       -1.70492        0.04853
N         -3.91003       -2.37822        0.15809
C         -1.62689       -2.21679       -0.42812
C         -0.62798       -1.29154       -0.38054
C          0.75530       -1.64892       -0.58455
C          1.85663       -0.92479       -0.23075
C          2.81030       -1.58251        0.41750
C          3.94846       -0.97634        0.72105
N          3.35632        0.02682        0.11143
C          2.18274        0.35523       -0.53195
N          1.29839        1.07303       -1.14565
C          0.49312        1.79191       -0.43109
N          0.93670        2.80170       -0.55526
H         -3.28669        0.29710        0.71966
H         -4.79560       -1.88081        0.24004
H         -4.07146       -3.22427       -0.38607
H         -1.51038       -3.24209       -0.77507
H          0.90497       -2.66740       -0.93370
H          2.67740       -2.62818        0.69472
H          4.88123       -1.26509        1.23035
H          0.03943        3.26211       -0.70833
H          1.61942        3.54808       -0.42874
