30
Coordinates from ORCA-job ./opt_b97-3c_parallel
N          5.35124       -0.70965       -0.04575
C          4.31528       -0.22951       -0.03100
C          3.04141        0.41960       -0.01176
C          1.72852       -0.16742       -0.00304
C          1.64119       -1.60479        0.02259
C          0.50201       -2.49107        0.00410
N          0.85959       -3.53733        0.03458
C         -0.87698       -2.40827       -0.07289
C         -1.79928       -1.30818       -0.10209
C         -3.14172       -1.58345       -0.17219
C         -3.71759       -0.34066       -0.10165
N         -4.81936       -0.43288       -0.14284
C         -2.76826        0.64790       -0.02117
C         -3.19730        2.01631        0.04380
N         -3.49024        3.11901        0.09843
C         -1.51897        0.08851       -0.02299
N         -0.52136        1.04306        0.03678
C          0.80893        0.92791        0.01135
N          1.52132        2.11646        0.01682
C          2.87423        1.83960       -0.00155
N          3.48917        2.76175       -0.00128
H          2.60883       -2.10669        0.05099
H          0.22312       -4.33038        0.11776
H          1.79700       -3.93862        0.05218
H         -1.41099       -3.36075       -0.10928
H         -3.56467       -2.45084        0.33779
H         -5.29482        0.46687       -0.07390
H         -5.55436       -1.14000       -0.14947
H          3.38337        3.77797        0.00813
H          4.49869        2.59879       -0.01327
