29
Coordinates from ORCA-job ./opt_b97-3c_parallel
N          4.22850        1.28140        1.79579
C          3.31489        0.94278        1.19743
C          2.16781        0.55675        0.41750
C          1.47316        1.60271       -0.29420
N          1.64867        2.69771       -0.37272
N          0.56215        1.42439       -1.18804
C         -0.53891        1.12908       -0.58380
C         -1.59633        2.07742       -0.38548
C         -2.77111        1.62987        0.17780
N         -3.62189        2.63666        0.45023
C         -2.42912        0.30108        0.23689
C         -3.64879       -0.29275        0.70120
N         -4.47750       -1.04511        0.93358
C         -1.08114       -0.00820       -0.12058
C         -0.52167       -1.33416       -0.22096
C         -1.50401       -2.38155       -0.29282
N         -2.03507       -2.91152       -1.15580
C          0.90868       -1.65892       -0.28291
C          1.29940       -2.95754       -0.46247
C          2.53171       -2.94142        0.11210
N          2.98111       -1.69343        0.47236
C          2.00479       -0.81725        0.19208
H          1.32280        3.36300       -1.07110
H          2.60378        2.45216       -0.62733
H         -1.45015        3.10222       -0.71761
H         -3.26600        3.54321        0.74727
H         -4.47534        2.44998        0.97449
H          0.64391       -3.80940       -0.29585
H          3.27096       -3.72491        0.33712
