40
Coordinates from ORCA-job ./opt_b97-3c_parallel
N          5.67894        1.60580        1.14105
C          4.68383        1.20059        0.75041
C          3.40746        0.70163        0.29614
C          3.05842       -0.68838        0.45879
N          3.73280       -1.45467        0.89202
C          1.73533       -0.78866       -0.09367
C          1.16258       -2.08923       -0.31419
N          1.51920       -3.12442       -0.13963
C          0.00573       -2.26958       -1.00727
C         -1.14556       -2.10694       -0.30096
N         -1.51295       -3.13689       -0.11919
C         -1.74322       -0.82154       -0.06527
C         -3.06900       -0.71497        0.47320
N         -3.75778       -1.46664        0.90595
C         -3.43522        0.66925        0.30682
C         -4.69593        1.22471        0.72987
N         -5.68178        1.67179        1.09841
C         -2.36467        1.39735       -0.34644
N         -2.54735        2.48020       -0.50893
C         -1.28167        0.45112       -0.54071
C          0.03420        0.86545       -1.05845
N          0.00305        1.84146       -1.58196
C          1.26768        0.42712       -0.54003
C          2.35853        1.36294       -0.32824
N          2.54437        2.44734       -0.48262
H          3.18410       -2.15423        1.38900
H          4.47076       -1.14876        1.52379
H          1.35506       -4.09682       -0.39253
H          2.49098       -2.91776       -0.36371
H         -0.00147       -2.18583       -2.09359
H         -2.48091       -2.92967       -0.35516
H         -1.33769       -4.09961       -0.40006
H         -4.49509       -1.15785        1.53711
H         -3.22026       -2.17814        1.39848
H         -1.59525        2.84263       -0.52032
H         -3.12561        3.17669       -0.04222
H         -0.81396        1.90154       -2.18777
H          0.82398        1.89482       -2.18303
H          3.13594        3.15274       -0.04681
H          1.59836        2.82483       -0.50551
