29
Coordinates from ORCA-job ./opt_b97-3c_parallel
N         -2.26112        1.54147        1.43178
C         -1.22057        1.34682        0.60576
C         -0.15130        2.14109        0.54877
C          0.87356        1.98497       -0.34967
C          1.82850        0.90130       -0.42638
C          2.96806        0.88832       -1.16348
C          3.52728       -0.30030       -0.98225
C          2.80844       -1.07269       -0.17442
C          1.70335       -0.37768        0.21389
C          0.60459       -0.87884        0.84845
N          0.60189       -1.44357        2.06432
C         -0.45279       -0.93215       -0.01153
C         -0.81663       -1.94256       -0.85498
N         -1.90018       -1.46939       -1.46176
C         -2.26981       -0.19125       -1.08177
N         -3.17605        0.24771       -1.53323
C         -1.29871        0.19651       -0.12382
H         -2.32366        2.41987        1.94766
H         -2.52016        0.80963        2.09424
H         -0.12161        3.02059        1.19022
H          1.12637        2.84228       -0.96639
H          3.36196        1.70295       -1.76770
H          4.46830       -0.60433       -1.43525
H          3.06740       -2.08334        0.13351
H          1.48236       -1.59977        2.55422
H         -0.01251       -2.22878        2.27250
H         -0.25347       -2.88699       -0.91006
H         -4.11846        0.03025       -1.85534
H         -3.26320        1.04104       -0.89620
