25
Coordinates from ORCA-job ./opt_b97-3c_parallel
N          2.79950       -2.67393       -0.52059
C          2.45195       -1.59524       -0.37175
C          2.04587       -0.23819       -0.16435
C          2.77341        0.92848       -0.26934
N          3.83027        1.12158       -0.52758
C          2.07630        2.07471        0.02385
C          0.84006        1.56868        0.30396
N         -0.19113        2.45227        0.61771
C         -1.47423        1.96464        0.73894
N         -2.49051        1.16618        0.74828
C         -2.52251        0.19416       -0.11606
C         -3.62040        0.09382       -0.91387
C         -3.22372       -1.19874       -1.07966
N         -2.12299       -1.14770       -1.04257
C         -1.45147       -0.75635       -0.25358
C         -0.31790       -0.70575        0.51132
C         -0.31965       -1.35058        1.41503
N         -0.10514       -2.28508        2.03779
C          0.73034        0.13759        0.23548
H          4.45303        1.85301       -0.86594
H          4.36069        0.25178       -0.54629
H          2.17858        2.97593       -0.58043
H         -1.83532        2.98052        0.95769
H         -4.61497        0.33076       -0.54184
H         -4.03032       -1.94833       -1.05979
