30
Coordinates from ORCA-job ./opt_b97-3c_parallel
N         -3.71903        3.04315       -0.34862
C         -3.09453        2.08575       -0.31573
C         -2.30036        0.88864       -0.23497
C         -0.88598        0.90414        0.01854
C         -0.26483        2.13566        0.44505
C          1.16387        2.24349        0.49474
N          1.32049        3.30500        0.76374
C          1.76370        1.82885       -0.74006
C          2.59311        0.69042       -0.51795
C          3.91024        0.66856       -0.87078
C          4.29536       -0.44450       -0.16928
N          3.29669       -1.15679        0.46573
C          2.15271       -0.42246        0.25067
C          0.86423       -0.91798        0.48606
C          0.89662       -2.24368        1.05184
N          0.80090       -3.12805        1.77070
C         -0.39829       -0.45267        0.09069
C         -1.49969       -1.26042       -0.15289
C         -1.82410       -2.65769       -0.26546
N         -2.03780       -3.66306       -0.76595
C         -2.66492       -0.43424       -0.37281
N         -3.73588       -0.63823       -0.58871
H         -0.90661        2.97840        0.70952
H          0.61879        4.03972        0.69209
H          2.22488        3.75265        0.62664
H          2.24529        2.60331       -1.33450
H          4.51330        1.57289       -0.83401
H          5.11138       -1.14138        0.07524
H         -4.57779       -0.09083       -0.41861
H         -4.00520       -1.61957       -0.53932
