31
Coordinates from ORCA-job ./opt_b97-3c_parallel
N         -4.06622        0.84198        2.11053
C         -3.15683        0.57987        1.47184
C         -2.02560        0.27048        0.63686
C         -1.62707       -1.11123        0.52363
C         -2.42899       -2.20109        0.98539
C         -2.00920       -3.34090        0.37181
C         -1.01659       -3.05761       -0.46563
C         -0.71233       -1.72765       -0.38193
C          0.55780       -1.14479       -0.75355
C          1.47308       -1.94892       -1.50760
N          2.22933       -2.55644       -2.11069
C          1.03358       -0.05474        0.08189
C          2.39693        0.01410        0.52685
C          3.35253       -1.03157        0.72688
N          4.14435       -1.83458        0.90475
C          2.65527        1.39859        0.79598
N          3.41858        2.12508        1.13356
N          1.54568        2.14878        0.44328
C          0.62426        1.25402        0.03597
C         -0.57106        1.74307       -0.63610
C         -0.39961        3.04266       -1.25206
N         -0.12798        4.15211       -1.30099
C         -1.75989        1.01490       -0.58348
N         -2.62222        1.52892       -1.06409
H         -3.34738       -2.08992        1.55386
H         -2.45043       -4.32536        0.51176
H         -0.51946       -3.78855       -1.10067
H          3.54158        3.13707        1.18196
H          4.34741        1.72367        1.26711
H         -3.55523        1.13388       -0.94252
H         -2.76269        2.48287       -1.39642
