31
Coordinates from ORCA-job ./opt_b97-3c_parallel
N          3.44006       -2.89145       -0.27168
C          3.46622       -1.92388        0.33588
C          2.56786       -0.80770        0.20354
C          1.13547       -0.80896        0.32945
N          0.59817       -1.99589        0.68922
C         -0.62030       -2.29104        0.12397
N         -0.57246       -3.26454        0.64733
N         -1.11934       -1.69294       -0.90926
C         -2.06464       -0.93382       -0.46899
C         -3.34332       -1.34305       -0.69774
C         -3.77146       -0.13965       -0.19955
N         -4.86565       -0.00907       -0.30374
C         -3.15131        0.87269        0.48579
C         -1.93540        0.32320        0.19640
C         -0.67372        1.04569        0.37081
C         -0.78657        2.38651        0.87077
N         -0.89917        3.43565        1.30762
C          0.65890        0.47409        0.11644
C          1.80001        1.31754       -0.16500
C          1.82555        2.70437       -0.53951
N          1.84874        3.79645       -0.87320
C          2.96255        0.47123       -0.13282
N          3.98973        0.82665       -0.34739
H          0.15439       -3.97284        0.75716
H         -1.44556       -3.71714        0.91602
H         -3.65069       -1.69332       -1.68408
H         -5.54315       -0.46042       -0.91806
H         -5.28357        0.88178       -0.03489
H         -3.37342        1.91773        0.26649
H          4.17927        1.82862       -0.31417
H          4.76653        0.40683       -0.85780
