32
Coordinates from ORCA-job ./opt_b97-3c_parallel
N          1.26358       -3.10951       -2.18807
C          1.05407       -2.16131       -1.58683
C          0.84834       -0.98067       -0.79608
C          2.03010       -0.29334       -0.32499
C          3.29903       -0.77827       -0.50053
C          4.05462        0.03212        0.31006
N          5.12275        0.18635        0.54756
N          3.32808        1.05283        0.89744
C          2.02675        0.86350        0.50468
C          1.17375        1.94611        0.61347
C         -0.00883        2.19969       -0.07891
N         -0.04407        3.31063       -0.12863
C         -1.05294        1.39514       -0.52940
C         -2.20111        2.00335       -1.15523
N         -2.97813        2.71997       -1.58939
C         -1.20307        0.03916       -0.05068
C         -2.48643       -0.55270        0.19201
C         -3.86162       -0.14055        0.28758
N         -4.17247        0.51119        1.17452
C         -2.30615       -1.87989        0.44582
N         -3.17367       -2.89007        0.64187
C         -0.99287       -2.07983        0.40598
C         -0.26665       -0.94933        0.12026
H          3.50114       -1.84760       -0.53532
H          5.86981       -0.42531        0.21801
H          5.58624        1.01366        0.92408
H          1.65053        2.77518        1.15111
H         -1.03086        3.56945       -0.09387
H          0.45710        4.16466       -0.37061
H         -2.87359       -3.78070        1.03329
H         -4.12877       -2.70424        0.94659
H         -0.54137       -3.06037        0.55247
