23
Coordinates from ORCA-job ./opt_b97-3c_parallel
N         -0.24171        3.75103       -0.52639
C         -0.16281        2.63205       -0.31232
C         -0.04531        1.22035       -0.08770
C         -1.24056        0.41188       -0.19383
C         -2.48925        0.91305       -0.42332
C         -3.35172        0.17384        0.25945
C         -2.74226       -0.79812        0.92707
C         -1.40075       -0.68746        0.70540
N         -1.28904       -1.91160        0.08162
C         -0.00001       -2.12406       -0.32905
N         -0.15848       -3.11026       -0.80584
N          1.33757       -1.82678       -0.42807
C          1.85067       -0.63907        0.08837
N          3.20031       -0.49952        0.31863
C          3.46320        0.81766        0.66094
N          2.28300        1.53528        0.57779
C          1.26292        0.66701        0.25745
H         -2.74254        1.76676       -1.05029
H         -4.42677        0.34519        0.27344
H         -3.23587       -1.51279        1.58664
H         -1.07217       -3.55033       -0.93460
H          0.50560       -3.77003       -1.21398
H          4.35925        1.40397        0.92287
