27
Coordinates from ORCA-job ./opt_b97-3c_parallel
N          2.67353        2.17509       -2.22931
C          2.10517        1.49063       -1.51240
C          1.35137        0.66123       -0.60848
C          1.75535       -0.70067       -0.39654
N          2.93878       -1.21470       -0.89648
C          3.12051       -2.37561       -0.26769
C          2.14396       -2.60531        0.60746
C          1.23736       -1.61116        0.54885
C         -0.16141       -1.80422        0.84664
C         -1.23320       -1.13337        0.14410
N         -2.42201       -1.80510       -0.01924
C         -3.34685       -0.90227       -0.52418
N         -4.40493       -1.08365       -0.77349
N         -2.77720        0.36055       -0.57644
C         -1.45972        0.23823       -0.18880
C         -0.71033        1.40044        0.23487
C         -1.39777        2.66147        0.37014
N         -1.98055        3.63891        0.47148
C          0.68420        1.19314        0.56066
N          1.16184        2.08178        1.02899
H          4.03951       -2.90090       -0.57040
H          2.07926       -3.47982        1.25116
H         -0.39863       -2.77609        1.27115
H         -5.10500       -0.35798       -0.92518
H         -4.90931       -1.96963       -0.75922
H          2.18197        2.10160        1.03333
H          0.86081        3.03702        1.22351
