28
Coordinates from ORCA-job ./opt_b97-3c_parallel
N         -4.29883       -1.13708        1.99181
C         -3.47964       -0.56095        1.44542
C         -2.48601        0.15966        0.71345
C         -1.08048       -0.13709        0.48154
C         -1.06468       -1.24795       -0.42843
C          0.08151       -2.10516       -0.35378
N          0.50954       -3.08736       -0.61066
N          1.30682       -1.75157        0.08975
C          1.96837       -0.58241        0.26689
N          3.31788       -0.63900        0.58907
C          3.89883        0.60298        0.36851
N          4.98128        0.72634        0.56904
C          2.89150        1.48786       -0.13923
C          1.66750        0.75538       -0.18878
C          0.47814        1.44797       -0.64952
C         -0.86041        0.99928       -0.36585
N         -1.89258        1.87561       -0.63889
C         -2.87630        1.29322        0.03945
N         -3.70367        1.99230       -0.20273
H         -1.94786       -1.63558       -0.93403
H          1.24252       -3.79588       -0.61723
H         -0.36523       -3.59942       -0.72527
H          5.54956        1.56025        0.40146
H          5.65382        0.01582        0.86758
H          3.03292        2.52914       -0.41647
H          0.59561        2.44512       -1.06837
H         -4.63174        1.60564       -0.01479
H         -3.86997        2.97907       -0.41107
