29
Coordinates from ORCA-job ./opt_b97-3c_parallel
N         -0.10716        4.33695       -0.28966
C         -0.44106        3.25049       -0.17889
C         -0.80256        1.87117       -0.04176
C         -0.01573        0.79269       -0.35952
N          1.00146        0.80942       -1.23927
C          2.24189        0.57576       -0.68142
N          3.44084        1.21068       -0.95554
C          4.40195        0.75111       -0.06676
C          3.81899       -0.22752        0.79551
C          2.46530       -0.35146        0.38193
C          1.71821       -1.52418        0.76810
C          0.88272       -2.15070       -0.24711
N          1.24044       -3.19932       -0.28976
C         -0.39363       -1.69169       -0.57833
C         -1.35909       -2.64519       -1.05760
N         -1.88776       -3.18607       -1.91370
C         -0.82566       -0.36602       -0.19982
C         -2.09062       -0.02218        0.22674
C         -3.25355       -0.79995        0.54028
N         -4.15831       -1.44066        0.81119
C         -2.10108        1.41190        0.38622
N         -2.93766        2.06354        0.70591
H          5.45387        1.07626       -0.08022
H          4.34357       -0.84115        1.52183
H          2.29485       -2.16463        1.43976
H          1.99432       -3.82713       -0.56884
H          0.41364       -3.78907       -0.19030
H         -3.80797        1.57590        0.91795
H         -3.17249        3.05319        0.63746
