23
Coordinates from ORCA-job ./opt_b97-3c_parallel
N         -0.04010        3.60197        0.00091
C         -0.00610        2.45859        0.00057
C         -0.00375        1.01672        0.00005
C         -1.29971        0.36077       -0.00081
C         -2.49634        1.16342       -0.00102
C         -3.59842        0.37940       -0.00184
C         -3.21345       -0.88361       -0.00216
C         -1.84870       -0.97152       -0.00155
C         -1.27342       -2.28716       -0.00163
C         -0.00155       -2.79943       -0.00127
C          1.30988       -2.23486       -0.00048
C          1.79633       -0.95030        0.00019
N          3.17164       -0.87883        0.00084
C          3.55599        0.44558        0.00140
N          2.41073        1.21304        0.00112
C          1.30201        0.38562        0.00040
H         -2.52568        2.24782       -0.00049
H         -4.62680        0.73229       -0.00211
H         -3.89790       -1.72931       -0.00276
H         -2.04124       -3.05587       -0.00213
H          0.02775       -3.88503       -0.00165
H          2.07177       -3.01102       -0.00043
H          4.53481        0.94832        0.00199
