29
Coordinates from ORCA-job ./opt_b97-3c_parallel
N          3.79040       -2.97917       -0.49021
C          3.13118       -2.05761       -0.34066
C          2.26950       -0.92303       -0.13399
C          0.89081       -0.86846       -0.14178
C          0.19107       -2.02418       -0.46095
C         -1.08784       -2.31779        0.11225
N         -1.50948       -3.32429       -0.06610
N         -1.58424       -1.63147        1.08515
C         -2.29961       -0.69977        0.55964
C         -3.71485       -0.85411        0.54327
C         -4.25614        0.32300       -0.04052
N         -3.21124        1.16569       -0.35771
C         -2.07335        0.52881        0.00025
C         -0.80104        1.11005       -0.07458
C         -0.88273        2.52205       -0.35661
N         -0.94555        3.63379       -0.61709
C          0.50229        0.44394        0.09896
C          1.63551        1.20855        0.29882
C          1.99089        2.57360        0.58955
N          2.44016        3.62445        0.61860
C          2.75520        0.40089        0.18466
N          3.85366        0.55655        0.26570
H          0.68486       -2.85775       -0.95594
H         -2.48797       -3.55212       -0.22956
H         -0.95750       -4.07632       -0.47405
H         -4.27868       -1.70166        0.92070
H         -5.22467        0.77523       -0.30104
H          4.66629       -0.01319        0.49408
H          4.13996        1.53090        0.34801
