25
Coordinates from ORCA-job ./opt_b97-3c_parallel
N         -4.25949       -0.76149        1.11627
C         -3.18950       -0.61408        0.74387
C         -1.86382       -0.43295        0.22682
C         -1.24645        0.89119        0.24783
C         -2.04101        2.03466        0.57340
C         -1.25020        3.19159        0.29334
N         -0.00372        2.80174       -0.16187
C          0.03106        1.42156       -0.16740
C          1.29136        0.76233       -0.44582
C          2.36441        1.46150       -1.09380
N          3.24247        1.97591       -1.61471
C          1.63477       -0.52712       -0.12257
C          2.74090       -0.76286        0.58286
C          3.12852       -2.00812        0.81386
N          2.02756       -2.26345        0.14251
C          0.97884       -1.64783       -0.50559
N         -0.14515       -1.54019       -1.13769
C         -1.26231       -1.54409       -0.48211
N         -1.61092       -2.57072       -0.71585
H         -3.07828        2.05194        0.89424
H         -1.56678        4.24052        0.40072
H          3.35950        0.05491        0.95193
H          3.98620       -2.46289        1.33459
H         -2.58318       -2.30109       -0.86659
H         -1.59388       -3.58971       -0.74543
