27
Coordinates from ORCA-job ./opt_b97-3c_parallel
N          0.12635       -3.42480        0.27372
C          0.05796       -2.28580        0.28186
C          0.00927       -0.85297        0.26500
C          1.26294       -0.12503        0.41438
N          2.42712       -0.67909        0.54683
C          3.62935       -0.29514        0.26342
N          4.54779       -0.90209        0.17957
C          2.88762        0.78716       -0.11183
C          1.44770        1.16887       -0.18247
C          1.02238        2.46006       -0.65143
C         -0.20968        2.88572       -0.06395
C         -0.85780        2.10373        0.84196
C         -1.65501        1.12095        0.33960
C         -3.05692        1.18423        0.10425
C         -3.46955       -0.14375       -0.24003
N         -4.36560       -0.74018       -0.49126
N         -2.39766       -0.95853       -0.22021
C         -1.28691       -0.18703        0.10971
H          5.45758       -0.43969        0.14620
H          4.75178       -1.90245        0.19194
H          3.39622        1.67870       -0.47935
H          1.55010        3.08938       -1.36208
H         -0.59564        3.86055       -0.35084
H         -0.99312        2.45320        1.86390
H         -3.69682        2.05444        0.21984
H         -4.53685       -1.74058       -0.60429
H         -5.28946       -0.30516       -0.51025
