27
Coordinates from ORCA-job ./opt_b97-3c_parallel
N          0.04039       -3.56788       -0.16022
C          0.06487       -2.42644       -0.16528
C          0.06516       -0.98924       -0.14024
C         -1.23319       -0.29647       -0.16948
C         -2.42432       -1.06899       -0.36337
C         -3.53108       -0.20646       -0.06061
N         -4.62969       -0.32527       -0.03983
N         -3.04505        1.03366        0.33407
C         -1.71034        0.94216        0.22111
C         -1.02031        2.13710        0.65071
C          0.25371        2.44940        0.08572
C          0.79974        1.80170       -0.97150
C          1.62941        0.91280       -0.37695
N          2.94292        1.05586       -0.18061
C          3.38380       -0.16948        0.29334
N          4.47389       -0.17978        0.48303
C          2.44337       -1.16694        0.34916
C          1.34380       -0.42294       -0.00046
H         -2.50259       -2.11768       -0.63583
H         -5.17346       -1.18975       -0.04689
H         -5.31848        0.42817       -0.05510
H         -1.53708        2.90565        1.21993
H          0.69543        3.39602        0.38712
H          1.10658        2.34843       -1.86196
H          5.03895       -1.00928        0.67210
H          5.13676        0.59619        0.45096
H          2.65986       -2.13163       -0.10918
