25
Coordinates from ORCA-job ./opt_b97-3c_parallel
N          0.25226       -3.47670        0.06446
C          0.05569       -2.35304        0.05292
C         -0.14367       -0.92044        0.02880
C         -1.50989       -0.44524        0.00645
C         -2.59223       -1.39163       -0.00203
C         -3.76782       -0.72196       -0.02144
C         -3.49587        0.57174       -0.02465
C         -2.14186        0.77301       -0.00647
N         -1.92109        2.08463        0.01159
C         -0.72359        2.75056        0.03212
C          0.66135        2.40033       -0.00002
C          1.37327        1.14680       -0.02225
C          2.72917        1.24742       -0.08719
C          3.29069        0.01003       -0.01860
N          4.27501       -0.49059       -0.02804
N          2.22975       -0.87341        0.01013
C          1.05945       -0.19558        0.00743
H         -2.49500       -2.47272        0.00451
H         -4.75957       -1.16858       -0.03401
H         -4.25495        1.35360       -0.04052
H         -1.03202        3.80718        0.03847
H          1.29832        3.27978       -0.00860
H          3.27826        2.15661        0.15176
H          4.48460       -1.48901       -0.02338
H          5.17191       -0.01607       -0.13096
