31
Coordinates from ORCA-job ./opt_b97-3c_parallel
N          1.98146       -3.11647        1.84621
C          1.61541       -2.16855        1.32405
C          1.16779       -0.99709        0.62299
C          2.17757       -0.06738        0.16628
C          3.58042       -0.34514        0.25063
C          4.25613        0.51522       -0.55762
C          3.38940        1.30177       -1.18460
C          2.12294        1.01233       -0.76810
C          1.06465        1.98237       -0.84498
C          0.20400        2.12638        0.30953
N          0.24877        3.20783        0.56376
C         -0.80500        1.21290        0.59533
C         -1.90658        1.72472        1.37152
N         -2.80643        2.34311        1.71282
C         -1.01230       -0.02026       -0.00507
C         -2.23371       -0.57894       -0.29635
C         -3.63218       -0.25735       -0.34821
N         -4.31565        0.26618       -1.09879
C         -1.89568       -1.92446       -0.63033
N         -2.44199       -2.83949       -0.93463
C         -0.57545       -2.27073       -0.56995
C         -0.03093       -1.06225       -0.19082
H          4.00865       -1.21245        0.74307
H          5.33613        0.54147       -0.68299
H          3.65711        2.08746       -1.88754
H          1.38764        2.88049       -1.37575
H         -0.72324        3.51263        0.60725
H          0.81440        4.05261        0.50419
H         -3.40937       -2.52099       -0.90075
H         -2.43934       -3.79741       -0.58814
H         -0.24547       -3.21982       -0.14348
