28
Coordinates from ORCA-job ./opt_b97-3c_parallel
N         -3.94090        2.67413        0.00843
C         -3.17894        1.82248       -0.00909
C         -2.24631        0.72567       -0.01331
C         -0.80167        0.84400       -0.01058
C         -0.25764        2.11882       -0.00389
C          1.07552        2.64439        0.00304
C          2.33103        2.09357        0.00614
C          2.81399        0.74772        0.00318
C          4.22964        0.55989        0.00932
C          4.51641       -0.76522        0.00592
C          3.37874       -1.44405       -0.00239
C          2.31168       -0.58910       -0.00472
C          0.98456       -1.12639       -0.01378
C         -0.31860       -0.51067       -0.01540
C         -1.39114       -1.38009       -0.02150
C         -1.50968       -2.81256       -0.02874
N         -1.43389       -3.95289        0.00165
C         -2.60110       -0.60591       -0.01801
N         -3.64892       -0.97498       -0.01807
H         -0.95972        2.94419       -0.00291
H          1.08279        3.73039        0.00788
H          3.13909        2.81954        0.01263
H          4.95022        1.37207        0.01614
H          5.51385       -1.19796        0.00994
H          3.31085       -2.52973       -0.00595
H          0.98369       -2.21116       -0.01851
H         -3.90911       -1.95681        0.06321
H         -4.50755       -0.43357        0.06981
