31
Coordinates from ORCA-job ./opt_b97-3c_parallel
N          0.38252       -4.25152       -0.58920
C          1.07894       -3.38563       -0.85592
C          1.31574       -2.01468       -0.48422
C          0.42002       -0.96649       -0.46146
C         -0.98073       -1.22211       -0.73572
C         -2.04130       -0.44214       -0.37959
C         -3.00459       -1.05759        0.28359
C         -4.11218       -0.29781        0.49629
N         -5.10537       -0.44410        0.96150
N         -3.70167        0.87363       -0.12845
C         -2.42395        0.82071       -0.67275
N         -1.43883        1.41071       -1.27455
C         -0.53332        2.11452       -0.67452
N         -0.96278        3.11589       -0.88626
C          0.66032        1.64683        0.00273
C          1.49348        2.68138        0.54421
N          2.12521        3.54034        0.95359
C          1.08931        0.23816       -0.01567
C          2.38379       -0.11531        0.32764
C          3.59612        0.46872        0.83937
N          3.60898        0.58272        1.97740
C          2.57448       -1.52004        0.02376
N          3.42964       -2.22328        0.11272
H         -1.21742       -2.20492       -1.12935
H         -2.94817       -2.10353        0.58670
H         -5.68551       -1.26634        0.78315
H         -5.65075        0.13244        1.60510
H         -1.48843        3.97136       -0.70677
H         -0.04940        3.41869       -1.22646
H          4.14958       -1.90014        0.75817
H          3.63374       -3.20259       -0.08190
