30
Coordinates from ORCA-job ./opt_b97-3c_parallel
N         -2.29994       -3.53027       -0.99210
C         -1.88290       -2.51400       -0.67549
C         -1.35843       -1.22199       -0.32843
C         -2.35718       -0.21926       -0.01908
C         -3.70023       -0.41464        0.11497
C         -4.21709        0.72664        0.54216
C         -3.29053        1.66862        0.65619
C         -2.08659        1.13173        0.29362
N         -1.30144        1.89825        0.31159
C         -0.28750        2.11458       -0.04313
N         -0.46376        3.20965       -0.15205
C          0.93785        1.38854       -0.20839
C          2.11520        2.16081       -0.50819
N          3.02718        2.79688       -0.77725
C          0.98332       -0.00356       -0.04916
C          2.26093       -0.63247        0.16133
C          3.64583       -0.30329        0.38998
N          4.36040        0.09147        1.19049
C          2.14263       -1.98930        0.20072
N          2.98890       -3.01989        0.39884
C          0.85595       -2.22127        0.00339
C          0.09138       -1.08418       -0.10939
H         -4.24914       -1.34023       -0.04337
H         -5.26841        0.87147        0.77848
H         -3.47387        2.68447        1.00773
H         -1.25567        3.82062       -0.34246
H          0.23469        3.40918       -0.86576
H          3.99571       -2.86698        0.41657
H          2.80355       -3.93282       -0.01175
H          0.45780       -3.23391        0.00378
