24
Coordinates from ORCA-job ./opt_b97-3c_parallel
N         -0.07097        3.50933        0.00730
C          0.10493        2.38108        0.00699
C          0.26780        0.94662        0.00588
C          1.64760        0.47753       -0.00031
N          2.59853        1.38454       -0.00247
C          3.70064        0.71314       -0.00454
C          3.57895       -0.59410       -0.00463
C          2.24918       -0.83271       -0.00204
C          1.79630       -2.19611       -0.00432
C          0.58280       -2.83570       -0.00561
C         -0.77726       -2.40513       -0.00082
C         -1.36919       -1.16858        0.00869
N         -2.74862       -1.20379        0.01535
C         -3.24532        0.08354        0.02526
N         -4.28656        0.44372        0.03186
N         -2.15720        0.93002        0.02271
C         -0.97839        0.19924        0.01264
H          4.60168        1.34429       -0.00620
H          4.39281       -1.31578       -0.00686
H          2.63773       -2.88489       -0.00705
H          0.66346       -3.91898       -0.00980
H         -1.46465       -3.24917       -0.00277
H         -4.61982        1.40319       -0.05799
H         -5.10371       -0.15703       -0.07056
