26
Coordinates from ORCA-job ./opt_b97-3c_parallel
N         -3.09743        2.68017       -0.88257
C         -3.20832        2.05211        0.06623
C         -2.38080        0.87896        0.10361
C         -0.94915        0.88826        0.19966
N         -0.24444        2.04605        0.28294
C          1.13629        1.95473        0.21492
N          1.26202        3.05077        0.31965
N          2.49084        1.66250        0.12504
C          2.92720        0.33907       -0.02682
C          4.17308       -0.14220       -0.23438
C          4.17687       -1.46893       -0.33599
N          2.91973       -1.87305       -0.17874
C          2.06912       -0.80209        0.02233
N          0.79105       -0.79292        0.23329
C         -0.45799       -0.46059        0.17093
C         -1.56798       -1.26393        0.07868
C         -1.55339       -2.69471        0.03490
N         -1.48566       -3.83388        0.00716
C         -2.75663       -0.44867        0.02797
N         -3.79383       -0.82289       -0.06439
H          2.12115        3.57500        0.49940
H          0.54573        3.77928        0.25369
H          5.06407        0.47686       -0.32524
H          4.99040       -2.19116       -0.51176
H         -4.54536       -0.31679       -0.53516
H         -4.18409       -1.73528        0.17617
