30
Coordinates from ORCA-job ./opt_b97-3c_parallel
N         -4.10858       -2.53248       -0.95503
C         -3.44110       -1.63250       -1.18641
C         -2.40006       -0.88171       -0.54297
C         -1.33268       -0.84714       -0.25448
C         -0.76023       -2.06888        0.14997
C          0.55427       -2.32375        0.65889
N          1.20449       -2.10860       -0.20350
C          2.20448       -1.21485       -0.15153
C          3.26809       -1.49202       -0.27402
C          4.08163       -0.31247       -0.31622
N          5.30615        0.17703       -0.66691
C          2.97923        0.31844        0.34603
C          1.89277        0.22203        0.15814
C          0.65310        0.89105        0.06176
C          0.80777        2.31213        0.28580
N          0.93325        3.43121        0.47857
C         -0.68489        0.51893       -0.22203
C         -1.68655        0.95405       -0.42047
C         -1.95273        1.98129       -1.38893
N         -2.11312        3.06723       -1.71099
C         -2.94038        0.35670       -0.04706
N         -4.07679        0.88572        0.50584
H         -1.30991       -3.01032        0.14793
H          0.97040       -3.26257        1.00744
H          3.66021       -2.48423       -0.48308
H          5.58459        1.08799       -0.31855
H          6.03593       -0.47768       -0.92677
H          3.09700        0.93456        1.23397
H         -4.92698        0.33403        0.45817
H         -4.17909        1.89541        0.50094
