29
Coordinates from ORCA-job ./opt_b97-3c_parallel
N          1.51298       -4.04037        0.80081
C          1.65969       -2.93906        0.53011
C          1.80770       -1.55076        0.20676
C          0.68631       -0.69305       -0.03976
N         -0.61089       -1.20026       -0.06129
C         -1.83721       -0.53570       -0.12062
C         -3.00772       -1.33557       -0.22112
C         -4.10495       -0.55304       -0.06844
N         -5.39513       -0.91474       -0.12046
C         -3.66721        0.68139        0.15943
C         -2.29955        0.74695        0.13380
N         -1.76482        1.95040        0.42256
C         -0.46649        2.13956        0.02029
N         -0.34550        3.18693        0.34948
N          0.38857        1.56514       -0.75026
C          1.16663        0.60471       -0.38397
C          2.54169        0.55796       -0.29609
C          3.37737        1.69124       -0.57121
N          3.27080        2.83038       -0.54365
C          2.93953       -0.77821        0.06422
N          3.98388       -1.12395        0.18169
H         -2.98972       -2.41767       -0.31423
H         -5.65695       -1.84801       -0.43666
H         -6.10648       -0.26320       -0.44853
H         -4.32231        1.53591        0.32216
H          0.53376        3.70348        0.31597
H         -1.07133        3.88185        0.52776
H          4.85882       -0.85569       -0.26829
H          4.11503       -2.08118        0.50878
