31
Coordinates from ORCA-job ./opt_b97-3c_parallel
N         -4.13511        2.65779       -0.38805
C         -3.45080        1.76555       -0.18368
C         -2.56346        0.66548        0.05193
C         -3.04070       -0.57656        0.56170
N         -4.02260       -0.99345        0.85257
C         -2.06876       -1.52842        0.69744
C         -0.94092       -0.90376        0.21741
C          0.09100       -1.66235       -0.45474
C         -0.23513       -3.00611       -0.87440
N         -0.48675       -4.08048       -1.17301
C          1.39747       -1.18720       -0.52714
N          2.18412       -1.83025       -0.98669
C          1.83810       -0.34516        0.56953
C          2.93922       -0.74356        1.41586
N          3.96100       -1.12706        1.75540
C          1.73503        1.01055        0.30091
C          2.72640        1.96449        0.71470
C          2.47852        3.14475        0.10143
C          1.40319        2.99148       -0.65336
C          0.88452        1.73518       -0.50528
C         -0.47591        1.40810       -0.84404
C         -1.23287        0.40469       -0.12583
H         -4.65465       -0.26476        0.52520
H         -4.50416       -1.88124        0.72212
H         -2.00699       -2.16727        1.57876
H          2.05006       -2.83906       -1.03159
H          3.17221       -1.67581       -0.79067
H          3.61595        1.73807        1.29391
H          3.08079        4.04661        0.18298
H          0.97193        3.77125       -1.27714
H         -1.03007        2.22347       -1.29963
