26
Coordinates from ORCA-job ./opt_b97-3c_parallel
N         -0.32224        3.79464       -0.20386
C         -0.20133        2.65824       -0.16616
C         -0.08767        1.22466       -0.12851
C         -1.30995        0.46685        0.07190
C         -2.55081        1.08741        0.41280
C         -3.50751        0.12917        0.40800
C         -2.93850       -1.01926        0.06604
C         -1.60141       -0.84962       -0.17158
C         -0.71513       -1.59720       -0.86901
C          0.03423       -2.29547        0.01759
N         -0.20306       -3.35631        0.22205
C          1.30122       -1.82893        0.49189
C          1.79721       -0.51890        0.13826
N          3.16521       -0.36974        0.24349
C          3.44446        0.87612       -0.09909
C          2.30138        1.48950       -0.37589
C          1.21240        0.68788       -0.19875
H         -2.69437        2.14498        0.61124
H         -4.55843        0.27699        0.64470
H         -3.46370       -1.96782       -0.01869
H         -0.95378       -1.98806       -1.85595
H         -0.97474       -3.99832        0.39290
H          0.63791       -3.92364        0.12859
H          1.98650       -2.53919        0.95067
H          4.47803        1.25106       -0.14015
H          2.27840        2.52015       -0.72219
