32
Coordinates from ORCA-job ./opt_b97-3c_parallel
N          1.16667       -3.98383        1.23382
C          0.92298       -2.91223        0.92631
C          0.65163       -1.57272        0.50049
C          1.73710       -0.60679        0.44633
N          2.96522       -0.87420        0.76119
C          3.82067       -1.03047       -0.19827
N          4.86042       -1.40367       -0.24234
C          3.03092       -0.00735       -0.63882
C          1.63747        0.51583       -0.44493
C          0.99811        1.77972       -0.73562
C          1.86797        2.70998       -1.39562
N          2.59891        3.41609       -1.91641
C          0.01975        2.15708        0.26541
N         -0.01221        3.20212        0.63172
C         -0.91163        1.14515        0.74533
C         -1.84341        1.44042        1.79978
N         -2.60756        1.62899        2.62597
C         -1.21536        0.08905       -0.20534
C         -2.59825       -0.18887       -0.50491
C         -3.65321        0.75992       -0.68259
N         -4.51601        1.48973       -0.84143
C         -2.76040       -1.61210       -0.60911
N         -3.51717       -2.39663       -0.80349
N         -1.58419       -2.16137       -0.27383
C         -0.66520       -1.22022       -0.00937
H          5.65004       -0.86831       -0.60738
H          5.26394       -2.28182        0.08910
H          3.47843        0.71381       -1.32103
H          0.72999        3.89966        0.56007
H         -0.80225        3.68560        1.06144
H         -3.64688       -3.41010       -0.82248
H         -4.45488       -2.00784       -0.92618
