29
Coordinates from ORCA-job ./opt_b97-3c_parallel
N          4.63147        2.05901       -0.04279
C          3.52913        1.76322       -0.02857
C          2.16930        1.32929       -0.01466
C          1.82891       -0.07326       -0.03526
C          2.69618       -1.26250       -0.24877
C          2.46990       -2.60153       -0.14217
N          3.11084       -3.49674       -0.24575
N          1.14458       -2.40605        0.19251
C          0.82428       -1.06478        0.23514
N         -0.42872       -0.94181        0.54796
C         -1.35619       -0.06564        0.30460
C         -2.74450       -0.40271        0.18378
C         -3.21604       -1.74503        0.34140
N         -3.54230       -2.83200        0.47448
C         -3.45831        0.72085       -0.10192
N         -4.77802        0.86255       -0.30932
C         -2.59118        1.72345       -0.14912
C         -1.32107        1.29370        0.09711
N         -0.17934        1.90294        0.15562
C          1.07109        2.24854        0.14495
N          0.88135        3.32454        0.27498
H          3.69163       -0.90112       -0.50379
H          2.87256       -4.44096        0.06138
H          4.09125       -3.54789       -0.53115
H         -5.14019        1.63145       -0.87221
H         -5.37634        0.05046       -0.46017
H         -2.85557        2.75816       -0.36097
H          1.84627        3.50203        0.55271
H          0.36453        4.17428        0.49717
