26
Coordinates from ORCA-job ./opt_b97-3c_parallel
N         -0.54332       -3.71563        0.12387
C         -0.23870       -2.61428        0.08691
C          0.08649       -1.20539        0.04051
C          1.51075       -0.88969        0.01032
N          2.35581       -1.89609        0.01461
C          3.52499       -1.35041       -0.03474
C          3.54980       -0.03958       -0.07016
C          2.25663        0.34530       -0.03813
C          1.97335        1.75315       -0.02189
C          0.82205        2.50723        0.02204
N          1.01832        3.59678        0.04419
C         -0.58932        2.25540        0.01786
C         -1.30610        1.08554       -0.00803
N         -2.67243        1.27204       -0.02769
C         -3.30746        0.04824       -0.03161
N         -4.37770       -0.21231       -0.04631
N         -2.32004       -0.91348       -0.00708
C         -1.06684       -0.31872        0.00505
H          4.36029       -2.06741       -0.04107
H          4.43438        0.59271       -0.11375
H          2.91066        2.31314       -0.04198
H          1.97010        3.94906        0.14265
H          0.41162        4.41271        0.11277
H         -1.21205        3.15340        0.02899
H         -5.13838        0.46322       -0.11088
H         -4.80959       -1.13569       -0.06805
