29
Coordinates from ORCA-job ./opt_b97-3c_parallel
N         -3.35487       -3.35267        0.37475
C         -2.57257       -2.54309        0.18548
C         -1.61899       -1.49333       -0.01098
C         -2.02069       -0.08942        0.05652
C         -3.40285        0.19053        0.31551
C         -3.60596        1.59436        0.15329
N         -4.53361        2.18686        0.24621
N         -2.39604        2.17962       -0.17804
C         -1.41135        1.20298       -0.22624
C         -0.07710        1.73917       -0.49896
C          1.22207        1.11234       -0.36018
N          2.29039        2.00341       -0.40868
C          3.31933        1.24735       -0.03884
N          4.19976        1.92084       -0.00432
C          2.93200       -0.03712        0.20292
C          3.82821       -1.04789        0.66539
N          4.57506       -1.82306        1.04464
C          1.59630       -0.16375       -0.04738
N          0.71513       -1.07814       -0.17477
C         -0.27942       -1.86807       -0.33656
N          0.33287       -2.76656       -0.52924
H         -4.18482       -0.52405        0.55621
H         -5.43238        1.82232        0.56723
H         -4.72073        3.14642       -0.04688
H         -0.04747        2.80691       -0.70566
H          5.01846        1.44695        0.38409
H          4.49318        2.88888       -0.14314
H          1.07332       -3.44790       -0.68286
H         -0.53730       -3.26863       -0.71086
