29
Coordinates from ORCA-job ./opt_b97-3c_parallel
N         -4.82019       -1.42890        0.31930
C         -3.95986       -0.68760        0.21557
C         -2.85113        0.20777        0.09377
C         -1.46348       -0.16560        0.01483
C         -1.12494       -1.57404       -0.00367
C          0.14179       -2.25125       -0.10316
N          0.36386       -3.33496       -0.14626
N          1.46820       -1.87013       -0.06584
C          2.10475       -0.64541       -0.01751
C          3.52617       -0.67774        0.05413
C          4.00960        0.58561        0.02658
N          5.28264        1.00416        0.06141
C          2.95503        1.38485       -0.06800
C          1.77185        0.68634       -0.08722
C          0.62934        1.45213       -0.16193
C         -0.75712        1.08238       -0.08949
N         -1.65420        2.14586       -0.08456
C         -2.86074        1.57683        0.02685
N         -3.61969        2.38352        0.03834
H         -1.96271       -2.26364        0.03287
H          1.21220       -3.90424       -0.10480
H         -0.38218       -4.00001       -0.35638
H          4.11030       -1.59300        0.09746
H          5.51299        1.97003        0.29318
H          6.02323        0.40655        0.42819
H          3.03353        2.47063       -0.12243
H          0.76922        2.52946       -0.22868
H         -4.59025        2.09228        0.17216
H         -3.65954        3.39843       -0.07096
