28
Coordinates from ORCA-job ./opt_b97-3c_parallel
N         -4.13344        2.86012       -0.17749
C         -3.23779        2.15091       -0.16959
C         -2.09805        1.28334       -0.12084
C         -2.22643       -0.13000        0.23204
C         -3.53071       -0.59132        0.60182
C         -3.48313       -2.01024        0.68392
N         -2.21243       -2.43348        0.36030
C         -1.40739       -1.33326        0.10267
C         -0.03438       -1.64823       -0.31651
C          0.27764       -3.00689       -0.68484
N          0.57656       -4.06905       -0.97983
C          1.08527       -0.73390       -0.18290
N          2.36950       -1.24002       -0.40975
C          3.17330       -0.27774        0.02765
N          4.12309       -0.80546       -0.19019
C          2.47228        0.78669        0.50487
C          3.23266        1.89418        0.99077
N          3.87730        2.76210        1.35844
C          1.14782        0.52723        0.32714
N          0.27808        1.40499        0.01219
C         -0.83287        1.88009       -0.41008
N         -0.25490        2.77604       -0.69738
H         -4.42462        0.00439        0.75851
H         -4.35076       -2.64064        0.93175
H          4.92476       -0.21290        0.03091
H          4.49920       -1.74579       -0.31839
H         -1.20516        3.14003       -0.76124
H          0.35469        3.52878       -1.01348
