31
Coordinates from ORCA-job ./opt_b97-3c_parallel
N          2.88236        2.39891       -2.10822
C          2.33586        1.66511       -1.42306
C          1.67845        0.74696       -0.52816
C          2.35138       -0.48799       -0.23415
C          3.59377       -0.88084       -0.63129
C          3.81059       -2.08212       -0.10885
C          2.77022       -2.51811        0.59234
C          1.79543       -1.57189        0.51136
C          0.46867       -1.95116        0.60474
C         -0.68132       -1.25998        0.26341
C         -1.88557       -2.01544        0.09668
C         -3.03445       -1.32164       -0.20758
N         -4.05594       -2.19930       -0.22890
C         -2.49396       -0.05762       -0.15874
C         -3.69356        0.69239       -0.39998
N         -4.10352        1.45568       -1.14723
C         -1.08808        0.03409        0.10962
C         -0.40976        1.27566        0.43698
C         -1.31301        2.36936        0.71021
N         -1.83759        3.03601        1.47691
C          0.95988        1.21273        0.64066
N          1.36455        2.14184        1.10323
H          4.29427       -0.31372       -1.24020
H          4.73310       -2.64297       -0.23878
H          2.70597       -3.46940        1.11613
H          0.31975       -2.99600        0.86435
H         -1.84947       -3.09797        0.19957
H         -4.98172       -1.89581       -0.52595
H         -3.91224       -3.14942       -0.56479
H          2.26804        2.54511        0.86058
H          0.78859        2.90558        1.45499
