32
Coordinates from ORCA-job ./opt_b97-3c_parallel
N         -2.96984        3.29108       -0.80888
C         -3.10531        2.23685       -1.23116
C         -2.54305        1.04742       -0.66075
C         -3.34813        0.05798       -0.01012
N         -4.43546       -0.02721        0.17251
C         -2.73208       -0.99391        0.62014
C         -1.43837       -0.66725        0.29019
C         -0.31567       -1.51438        0.58395
C         -0.51010       -2.63767        1.46560
N         -0.66582       -3.54667        2.13960
C          0.55936       -1.60335       -0.56527
N          0.56912       -2.59218       -1.07437
C          1.84584       -1.20800       -0.24716
C          3.10966       -1.88722       -0.43940
N          4.00791       -1.86573       -1.14897
C          1.99790        0.17775        0.16276
C          3.25902        0.70075        0.58804
C          3.10999        2.12359        0.57275
N          3.68477        3.04964        0.74909
N          1.87263        2.44472        0.15404
C          1.17799        1.26221       -0.05403
C         -0.13820        1.42142       -0.63770
C         -1.28694        0.55907       -0.43898
H         -5.15442       -0.66481        0.51040
H         -4.89778        0.86159       -0.01326
H         -3.08979       -2.01753        0.49555
H          1.37074       -3.18103       -1.30034
H         -0.22485       -3.22490       -0.97669
H          4.17290        0.16040        0.81557
H          4.70198        3.05589        0.82528
H          3.39964        4.02825        0.71143
H         -0.37291        2.42501       -0.97940
