31
Coordinates from ORCA-job ./opt_b97-3c_parallel
N         -4.94913       -2.30227       -0.59718
C         -4.10429       -1.54335       -0.46815
C         -3.03144       -0.60802       -0.25420
C         -1.65394       -0.97762       -0.01006
C         -1.33272       -2.33084        0.13474
C         -0.13787       -3.08905        0.44929
C          1.21349       -2.81020        0.50716
C          1.89744       -1.57901        0.25929
N          3.27009       -1.75901        0.17019
C          3.64305       -0.56126       -0.23668
N          4.67957       -0.96744       -0.22566
C          2.56003        0.26273       -0.37688
C          3.23538        1.47872       -0.72450
N          3.81724        2.43319       -0.95839
C          1.38511       -0.33249        0.04048
C          0.40133        0.43297        0.59672
C          0.83501        1.56622        1.36523
N          1.21981        2.45833        1.96718
C         -0.97790        0.26494        0.23468
C         -1.85792        1.32464        0.13443
C         -1.78299        2.76126        0.20547
N         -1.30628        3.43899       -0.57796
C         -3.14647        0.76843       -0.19355
N         -4.11872        1.27699       -0.36442
H         -2.16516       -3.02055        0.05428
H         -0.36020       -4.14368        0.58984
H          1.86394       -3.66466        0.67920
H          5.38800       -1.68411       -0.38845
H          5.16703       -0.07379       -0.30900
H         -4.19509        2.28773       -0.46895
H         -5.05066        0.89667       -0.52602
