25
Coordinates from ORCA-job ./opt_b97-3c_parallel
N          0.23017        3.58939        0.10017
C          0.30394        2.44835        0.06053
C          0.32776        1.01226        0.02032
C         -0.91887        0.25789        0.14249
C         -2.13877        0.97696        0.34900
C         -3.22270        0.07008        0.12609
N         -4.32079        0.18338        0.13479
N         -2.71517       -1.16962       -0.22217
C         -1.33449       -1.08932       -0.18578
C         -0.60243       -2.26552       -0.59530
C          0.75162       -2.48210       -0.19861
C          1.36396       -1.71714        0.73492
C          2.05786       -0.78333        0.04203
C          3.37493       -1.04933       -0.19753
C          3.69509        0.23426       -0.55291
N          2.70497        1.19736       -0.58599
C          1.60662        0.52753       -0.23396
H         -2.24820        2.03616        0.56215
H         -4.83276        1.06190        0.05115
H         -5.02269       -0.55575        0.10638
H         -1.13462       -3.09387       -1.05463
H          1.19439       -3.42834       -0.49775
H          1.76924       -2.16032        1.64260
H          3.98996       -1.59525        0.51482
H          4.52616        0.90935       -0.80943
