28
Coordinates from ORCA-job ./opt_b97-3c_parallel
N          4.27416        2.10486       -0.58544
C          3.49129        1.30751       -0.34562
C          2.48485        0.32311       -0.07442
C          1.14222        0.26006       -0.32298
C          0.49909        1.22742       -1.03244
C          0.07485        1.88778        0.07646
C         -1.21795        1.69370        0.65833
C         -2.13621        0.71785        0.11937
C         -3.47319        0.94728        0.22500
C         -3.75867       -0.27651       -0.31683
N         -4.82677       -0.42440       -0.56375
C         -2.94548       -1.30158       -0.71822
C         -1.82661       -0.61124       -0.36032
C         -0.68128       -1.39741       -0.22230
C          0.65327       -0.99523        0.13778
N          1.73317       -1.09970        0.39505
C          2.82067       -0.91620        0.55279
N          3.44351       -1.69463        1.02418
H          0.98756        1.75530       -1.84806
H          0.64323        2.73348        0.45404
H         -1.59663        2.48619        1.29654
H         -3.91269        1.26727        1.16788
H         -5.20859       -1.36778       -0.53034
H         -5.61810        0.21579       -0.54567
H         -3.11698       -2.32032       -0.37169
H         -0.79587       -2.47024       -0.34160
H          4.09536       -1.26458        0.37134
H          3.12828       -2.56487        0.60007
