27
Coordinates from ORCA-job ./opt_b97-3c_parallel
N         -3.91194       -2.71435        0.00539
C         -3.16393       -1.84998        0.00379
C         -2.25230       -0.73595        0.00197
C         -0.80754       -0.83266        0.00103
C         -0.23684       -2.09132        0.00176
C          1.10948       -2.57647        0.00166
C          2.36199       -2.01407        0.00103
C          2.90043       -0.68333       -0.00034
N          4.20688       -0.59559       -0.00059
C          4.40370        0.68476       -0.00232
C          3.34121        1.45965       -0.00317
C          2.29388        0.61416       -0.00189
C          0.96004        1.13724       -0.00217
C         -0.33981        0.52158       -0.00067
C         -1.41978        1.38129       -0.00096
C         -1.55257        2.81280       -0.00260
N         -1.48686        3.95390       -0.00073
C         -2.62003        0.59211        0.00087
N         -3.67345        0.94289        0.00137
H         -0.91912       -2.93333        0.00268
H          1.13723       -3.66224        0.00254
H          3.15710       -2.75580        0.00167
H          5.45413        1.01224       -0.00298
H          3.32088        2.54701       -0.00463
H          0.95166        2.22211       -0.00346
H         -3.96221        1.91979        0.00756
H         -4.52348        0.38164        0.00960
