32
Coordinates from ORCA-job ./opt_b97-3c_parallel
N         -3.31320       -3.54277        1.51438
C         -3.14910       -2.50350        1.07347
C         -2.91475       -1.22748        0.47517
C         -1.62181       -0.63153        0.33042
C         -0.40195       -1.32413        0.62453
C          0.63690       -1.08798       -0.33507
N          1.66949       -1.86028       -0.47629
C          2.95547       -2.03746       -0.52905
N          3.24276       -3.06676       -0.82470
C          2.95642       -0.70955       -0.14605
C          4.37302       -0.46109       -0.06422
N          4.81885        0.08707       -0.96589
C          1.61233       -0.20071        0.02126
C          1.35583        1.10502        0.61778
C          2.48825        1.55163        1.39903
N          3.41292        2.14077        1.71928
C          0.18739        1.86576        0.40609
N          0.26922        2.91079        0.78373
C         -0.84175        1.65812       -0.62527
C         -1.37004        2.78462       -1.35758
N         -1.83279        3.66272       -1.92185
C         -1.79575        0.57632       -0.40737
N         -3.14355        0.72764       -0.72433
C         -3.74309       -0.34447       -0.17553
N         -4.80368       -0.19354       -0.45977
H         -0.44733       -2.29982        1.10282
H          3.29308       -4.07270       -0.65781
H          4.18634       -2.79359       -1.10679
H          1.17618        3.30883        1.03497
H         -0.34790        3.71494        0.66391
H         -5.34129        0.59138       -0.83398
H         -5.49940       -0.90399       -0.22417
