26
Coordinates from ORCA-job ./opt_b97-3c_parallel
N          0.20002        3.49989        0.05997
C          0.14809        2.35884        0.07005
C          0.06909        0.92142        0.03871
C         -1.28610        0.36060        0.03445
C         -2.37381        1.19917        0.06360
C         -3.52148        0.45494        0.07291
N         -4.61054        0.64519        0.07736
N         -3.16556       -0.87942        0.03096
C         -1.79013       -0.98473        0.01253
C         -1.34040       -2.29163       -0.01552
C         -0.03368       -2.86402       -0.02539
N          1.17632       -2.31504       -0.01891
C          1.70609       -1.09791       -0.00412
C          3.12955       -1.14459       -0.00992
C          3.58032        0.20769        0.00434
N          4.53208        0.77020        0.00729
N          2.50349        1.01011        0.02038
C          1.34770        0.22104        0.01655
H         -2.37628        2.17132       -0.42725
H         -5.05937        1.56232        0.09623
H         -5.37692       -0.02890        0.04550
H         -2.11233       -3.05851       -0.02751
H          0.05042       -3.96269       -0.04238
H          3.75439       -2.03418       -0.02253
H          5.43227        0.28843        0.03728
H          4.75886        1.76539       -0.02075
