29
Coordinates from ORCA-job ./opt_b97-3c_parallel
N         -4.44380       -2.23529        0.16523
C         -3.39918       -1.77821        0.13522
C         -2.10652       -1.16505        0.06837
C         -2.00851        0.29269       -0.05426
C         -3.16208        1.02354       -0.16263
C         -2.82893        2.34662       -0.04475
N         -3.40351        3.29202       -0.04023
N         -1.45049        2.46157        0.04869
C         -0.88200        1.20414        0.03744
C          0.51728        1.20574        0.12936
C          1.50611        0.22904        0.04611
C          2.91372        0.51263        0.05857
C          3.48209        1.81586        0.19635
N          3.90095        2.87209        0.30731
C          3.50821       -0.71162       -0.11709
N          4.54848       -1.08719       -0.20958
N          2.65397       -1.74042       -0.21935
C          1.38530       -1.17665       -0.12006
N          0.23312       -1.73605       -0.14768
C         -0.98044       -2.05389        0.11784
N         -0.71361       -3.12190        0.21482
H         -3.94975        0.72407       -0.85442
H         -4.37772        3.35557       -0.34357
H         -3.16898        4.23254        0.28326
H          0.91938        2.21027        0.23636
H          4.99291       -1.91836       -0.60852
H          5.33068       -0.46608        0.01616
H         -1.68312       -3.35245        0.43757
H         -0.21181       -4.00900        0.25271
