27
Coordinates from ORCA-job ./opt_b97-3c_parallel
N          0.01504       -3.11401       -1.05583
C          0.07661       -2.60362       -0.03453
C          0.03188       -1.15982       -0.08085
C         -1.26810       -0.61886       -0.05853
C         -2.38749       -1.36627        0.22355
C         -3.42541       -0.46969        0.14187
N         -4.50416       -0.63388        0.33734
N         -2.97991        0.75825       -0.32728
C         -1.61321        0.68891       -0.47217
N         -0.77257        1.52568       -0.96982
C         -0.12663        2.34636       -0.21931
N         -0.56288        3.36062       -0.18750
C          1.17149        2.06109        0.31339
C          1.83070        0.84900        0.17345
N          3.15788        0.78090        0.34000
C          3.56723       -0.52551        0.14823
N          4.58624       -0.94562        0.20343
N          2.44847       -1.30159       -0.08498
C          1.36522       -0.50452       -0.07932
H         -2.52509       -2.37221       -0.17372
H         -5.20462       -0.02268        0.76462
H         -5.01957       -1.48788        0.10863
H          0.17064        3.99653       -0.50350
H         -1.37927        3.95098       -0.02305
H          1.71761        2.91888        0.70445
H          5.41702       -0.42525        0.48959
H          4.91918       -1.88451       -0.02134
