28
Coordinates from ORCA-job ./opt_b97-3c_parallel
N         -3.33170        3.15708       -0.57749
C         -3.06295        2.08164       -0.85599
C         -2.25846        0.96134       -0.45074
C         -0.86897        0.91241       -0.09018
C         -0.19103        2.10332        0.00629
C          0.95336        2.11486        0.85257
N          1.37412        3.11144        1.07519
N          2.06714        2.03628        0.13600
C          2.47532        0.88904       -0.42636
N          3.71749        0.80103       -1.00482
C          4.04631       -0.54233       -1.08256
N          3.03798       -1.29212       -0.49838
C          2.02977       -0.43380       -0.11106
C          0.81437       -0.97256        0.50545
C          0.94934       -2.29762        1.04380
N          1.10994       -3.33707        1.48975
C         -0.51045       -0.37671        0.24944
C         -1.71742       -1.18078        0.16902
C         -1.90707       -2.59391        0.34824
N         -2.08538       -3.71713        0.45802
C         -2.77062       -0.30797       -0.28364
N         -3.81402       -0.63636       -0.46407
H         -0.62930        3.05528       -0.28682
H          2.11818        3.78605        1.25542
H          0.53482        3.50006        1.50501
H          4.91945       -1.10526       -1.44950
H         -4.65421       -0.08190       -0.62460
H         -4.12587       -1.59602       -0.31690
