25
Coordinates from ORCA-job ./opt_b97-3c_parallel
N         -2.79874       -2.94021        0.05191
C         -2.43911       -1.85711       -0.02115
C         -1.80795       -0.56662       -0.01479
C         -0.75172       -0.20912       -0.00929
C          0.42261       -0.96814       -0.00504
C          1.81269       -0.88277        0.00064
N          2.53366       -2.01409        0.00200
C          3.57525       -1.66520        0.00716
C          3.61844       -0.23722        0.00951
C          2.66992        0.33145        0.00604
C          2.46255        1.71658        0.00740
C          1.32890        2.53039        0.00274
C         -0.05889        2.36642       -0.00476
C         -0.94745        1.27598       -0.00988
N         -2.24971        1.59937       -0.01580
C         -2.66315        0.58644       -0.01881
N         -4.03135        0.52819       -0.02851
H          0.16219       -2.02618       -0.00691
H          4.38914       -2.38009        0.00973
H          4.57721        0.27439        0.01454
H          3.38195        2.29966        0.01287
H          1.60105        3.58378        0.00545
H         -0.56193        3.33258       -0.00677
H         -4.57585        1.37778        0.06937
H         -4.50369       -0.36333        0.07756
