30
Coordinates from ORCA-job ./opt_b97-3c_parallel
N          0.09609        4.21667       -0.20731
C          0.03893        3.07689       -0.18214
C         -0.06039        1.64417       -0.18292
C         -1.41814        1.07081       -0.23497
C         -2.49178        1.91519       -0.33694
C         -3.60193        1.24914        0.11134
N         -4.67640        1.36768        0.34335
N         -3.26616       -0.06945        0.35632
C         -1.91657       -0.24133        0.12543
C         -1.40576       -1.52436        0.32170
C         -2.11709       -2.65940        0.84521
N         -3.14150       -3.13738        1.01215
C         -0.16524       -2.02408       -0.20756
N          0.46475       -2.92473       -0.35835
N          0.64833       -1.29913       -0.88665
C          1.41585       -0.38079       -0.41681
C          2.81862       -0.60426       -0.22675
C          3.71646       -1.71288       -0.35363
N          3.85567       -2.16188        0.68844
C          3.35879        0.67263        0.15957
N          4.22905        1.29732        0.44172
N          2.37241        1.58194        0.22233
C          1.19381        0.91504       -0.08530
H         -2.57306        2.61943       -1.16414
H         -5.34078        0.68383        0.71055
H         -5.20528        2.23785        0.26216
H          1.31265       -3.47212       -0.50518
H         -0.31048       -3.56150       -0.54255
H          4.69663        2.18665        0.25729
H          4.93937        0.70020        0.87031
