22
Coordinates from ORCA-job ./opt_b97-3c_parallel
N          0.18566       -2.72380        1.38871
C         -0.05535       -2.08284        0.47386
C         -0.24757       -1.02832        0.15267
C         -1.51545       -0.63154       -0.13088
C         -2.59924       -1.41592       -0.20993
C         -3.77684       -0.88904       -0.51645
N         -3.15934        0.27204       -0.51141
C         -1.85812        0.67065       -0.30600
N         -1.75775        2.02244       -0.10467
C         -0.55175        2.27899        0.49290
N          0.73468        2.09214        0.94696
C          1.43067        0.95047        0.55580
N          2.79756        1.02624        0.40851
C          3.25057       -0.11047       -0.23809
N          4.25715       -0.43469       -0.56035
N          2.12611       -0.88664       -0.48334
C          0.95643       -0.31001        0.02524
H         -2.54371       -2.49488       -0.06666
H         -4.84168       -1.11110       -0.69826
H         -0.82653        3.32066        0.73617
H          5.02464        0.14346       -0.91115
H          4.64986       -1.37741       -0.50243
