31
Coordinates from ORCA-job ./opt_b97-3c_parallel
N          2.78846        3.53800       -0.98122
C          2.24259        2.61143       -0.59846
C          1.61397        1.42170       -0.11076
C          2.32555        0.15988       -0.01708
C          3.63629        0.00293       -0.36525
C          3.83004       -1.33130       -0.10313
N          4.75043       -1.93436       -0.22978
N          2.70184       -1.97563        0.38777
C          1.70094       -1.03821        0.46162
N          0.47428       -1.20665        0.85425
C         -0.74571       -1.04475        0.44636
C         -1.73118       -2.08572        0.41460
C         -2.97747       -1.76884       -0.08568
N         -3.88205       -2.75783       -0.00861
C         -2.74364       -0.45287       -0.40340
C         -3.90654        0.18686       -0.94161
N         -4.38515        0.95883       -0.24685
C         -1.43374       -0.00758       -0.07998
C         -0.90576        1.31349       -0.26595
C         -1.43307        2.46978       -0.93312
N         -1.34216        2.35776       -2.06855
C          0.31564        1.67892        0.23487
N          0.23442        1.93431        1.55598
H          4.04064        0.46694       -1.26401
H          4.89122       -2.92018       -0.46014
H          5.69205       -1.54141       -0.16489
H         -1.46799       -3.07973        0.76641
H         -4.87532       -2.55028       -0.11798
H         -3.79920       -3.48802        0.69745
H          0.91111        2.56625        1.98513
H         -0.67097        2.18579        1.95642
