33
Coordinates from ORCA-job ./opt_b97-3c_parallel
N          3.56826       -2.77342       -1.82622
C          2.77726       -2.17915       -1.25445
C          1.82423       -1.39255       -0.51917
C          0.73016       -2.06551        0.13125
N          0.47595       -3.14501        0.12466
C         -0.11066       -1.48698        1.02396
C         -1.11816       -0.82878        0.40032
C         -2.35696       -1.37688        0.15585
C         -2.80605       -2.71967        0.38690
N         -2.71760       -3.84873        0.23349
C         -3.19424       -0.31995       -0.35792
N         -4.25504       -0.41950       -0.65965
C         -2.47066        0.85702       -0.38403
C         -2.92336        2.13903       -0.84612
N         -3.25947        3.15626       -1.24141
C         -1.13308        0.53841        0.05187
C         -0.07284        1.47764        0.36987
C         -0.41342        2.83627        0.67840
N         -0.63506        3.92370        0.94947
C          1.35336        1.12453        0.30103
C          2.31210        2.18360        0.45752
C          3.58162        1.70782        0.01255
N          4.62264        2.03962       -0.14520
N          3.44582        0.39649       -0.39040
C          2.12753       -0.00056       -0.20366
H         -0.42805       -3.61874        0.15017
H          1.17794       -3.88267        0.06999
H         -0.12598       -1.72421        2.08800
H         -4.84008        0.38093       -0.89745
H         -4.85091       -1.24377       -0.72572
H          2.12460        3.20773        0.76578
H          5.43831        1.52270       -0.47466
H          4.89664        3.02254       -0.14353
