30
Coordinates from ORCA-job ./opt_b97-3c_parallel
N          4.24546        1.55649       -1.27464
C          3.77492        1.20617       -0.29383
C          2.43656        0.75273        0.02509
C          2.31588       -0.64331       -0.06982
C          3.26206       -1.49425       -0.55508
C          2.95848       -2.76024       -0.28516
N          1.81322       -2.75454        0.38724
C          1.35429       -1.46211        0.56587
N          0.37526       -1.05668        1.29135
C         -0.58011       -0.60844        0.55230
C         -1.76256       -1.34938        0.19919
C         -1.85176       -2.75455        0.47253
N         -1.86990       -3.87790        0.67796
C         -2.78356       -0.64837       -0.41460
N         -4.05366       -1.10763       -0.41311
C         -2.16360        0.58092       -0.45350
C         -3.09373        1.47381       -1.08643
N         -3.29046        2.30155       -1.84903
C         -0.83064        0.62291        0.07362
C         -0.01400        1.80633        0.28056
C         -0.84646        2.98719        0.36295
N         -1.30993        3.29683        1.36259
C          1.45634        1.78342        0.44437
N          1.83197        2.81227        0.63548
H          4.15634       -1.21407       -1.10932
H          3.63818       -3.56200       -0.61509
H         -4.80572       -0.55178       -0.82108
H         -4.25718       -2.09024       -0.59314
H          2.71034        3.20824        0.30042
H          1.28454        3.59901        0.98460
