27
Coordinates from ORCA-job ./opt_b97-3c_parallel
N          3.99017        2.61584       -0.00997
C          3.20398        1.78590        0.00630
C          2.19296        0.76528        0.00400
C          0.81141        0.87117        0.00180
C          0.27381        2.15330        0.00128
C         -1.07335        2.62515       -0.00097
C         -2.25193        1.96892       -0.00181
C         -2.82710        0.74716       -0.00194
C         -4.17809        0.55123       -0.00268
C         -4.41059       -0.75399       -0.00327
C         -3.28264       -1.44586       -0.00302
C         -2.25897       -0.55375       -0.00221
N         -0.96234       -1.02743       -0.00187
C          0.27364       -0.48082       -0.00017
C          1.34491       -1.34802        0.00005
C          1.31401       -2.78597       -0.00109
N          1.32365       -3.92910       -0.00225
C          2.57478       -0.61690        0.00322
N          3.59718       -1.04759        0.00441
H          0.95884        2.99434        0.00218
H         -1.12873        3.71025       -0.00163
H         -3.03714        2.72353       -0.00239
H         -4.94033        1.32737       -0.00295
H         -5.40117       -1.20109       -0.00396
H         -3.19096       -2.52963       -0.00323
H          4.46548       -0.51539        0.00005
H          3.85176       -2.03393       -0.00009
