28
Coordinates from ORCA-job ./opt_b97-3c_parallel
N         -1.79413        3.93749       -0.72619
C         -1.73605        2.81475       -0.52041
C         -1.64497        1.41490       -0.22073
C         -0.54388        0.63179        0.01933
C          0.78444        1.20700        0.08956
C          2.06544        0.51835        0.13980
C          3.20443        1.23084        0.34934
C          3.92793        0.12618       -0.02794
N          4.99581        0.34741        0.17526
C          3.65514       -1.12082       -0.53754
C          2.34573       -0.80252       -0.35434
N          1.62104       -1.87511       -0.85962
C          0.44278       -2.03337       -0.26547
N         -0.13264       -1.59802        0.80115
C         -0.93642       -0.69809        0.35598
C         -2.30762       -0.73846        0.24454
C         -3.16411       -1.85986        0.49789
N         -3.87069       -2.73922        0.68068
C         -2.80504        0.56850       -0.11249
N         -3.86374        0.86981       -0.24038
H          0.84038        2.29067        0.11764
H          3.34531        2.19352       -0.14242
H          5.39969        1.28223        0.16191
H          5.64091       -0.24330        0.69675
H          4.07831       -2.01688       -0.08386
H          0.37129       -2.89401       -0.94705
H         -4.53619        0.37024        0.33940
H         -4.00089        1.86347       -0.06405
