26
Coordinates from ORCA-job ./opt_b97-3c_parallel
N          3.75672        0.59707        1.63921
C          2.77588        0.37088        1.09821
C          1.54540        0.04854        0.43866
C          1.08300       -1.29595        0.30049
C          1.90754       -2.43354        0.50702
C          1.20912       -3.52324       -0.10839
N          0.00347       -3.07946       -0.63986
C         -0.08627       -1.72055       -0.38318
C         -1.31608       -0.96523       -0.58037
C         -2.38283       -1.66896       -1.25225
N         -3.25103       -2.21312       -1.75954
C         -1.62074        0.01976        0.46946
N         -2.60658       -0.12395        0.96971
C         -1.09909        1.32940        0.52952
C         -1.73653        2.40315        1.26873
N         -2.58987        3.12683        1.50629
C          0.06833        1.76228       -0.23550
N          0.21882        3.07815       -0.46890
C          1.41251        3.28393       -1.12324
N          1.48298        2.00393       -0.97775
C          1.01115        0.85197       -0.62588
H          2.90994       -2.46005        0.92278
H          1.40646       -4.59220       -0.27925
H         -3.23030        0.68273        0.96818
H         -3.20250       -0.95020        0.95638
H          1.78120        4.27792       -1.41877
