27
Coordinates from ORCA-job ./opt_b97-3c_parallel
N         -5.19828        0.55963        0.00894
C         -4.06411        0.41792        0.03440
C         -2.63740        0.24536        0.02716
C         -2.03074       -1.06829        0.03225
N         -2.52729       -2.05812        0.04301
C         -0.62619       -0.78844        0.01683
C          0.34058       -1.84467        0.00511
N          1.30572       -2.37268       -0.00806
C          2.05711       -1.56872       -0.01435
C          2.80349       -0.35255       -0.01796
C          4.16536       -0.27847       -0.03132
N          4.36194        1.03489       -0.01447
C          3.22272        1.82051        0.00590
C          2.14108        0.90732        0.00032
C          0.82657        1.35275        0.01025
C         -0.39224        0.55939        0.01206
C         -1.66041        1.22932        0.01316
N         -1.88167        2.31462        0.00230
H         -3.51886       -1.95344        0.25126
H         -2.29800       -3.04066        0.17700
H         -0.00835       -2.89040        0.00918
H          2.77981       -2.40045       -0.03050
H          5.14892       -0.77079       -0.05390
H          3.25014        2.92032        0.02208
H          0.69335        2.42996        0.01971
H         -1.24043        2.80100       -0.62130
H         -2.81953        2.64200       -0.22365
