26
Coordinates from ORCA-job ./opt_b97-3c_parallel
N         -2.09995        2.78469       -1.83367
C         -1.59734        1.93391       -1.25920
C         -0.99206        0.86705       -0.50337
C         -1.76751       -0.31024       -0.24350
C         -3.09092       -0.51129       -0.49222
C         -3.42678       -1.65126        0.10149
C         -2.39343       -2.22429        0.70996
C         -1.30326       -1.43809        0.49531
C         -0.03652       -1.99684        0.51996
C          1.16178       -1.56933       -0.03216
N          2.13767       -2.44433       -0.28938
C          3.19727       -1.79924       -0.78223
N          3.00287       -0.43826       -0.82744
C          1.71182       -0.27580       -0.36551
C          1.26208        1.03810        0.04142
C          2.18464        2.14839        0.03069
N          2.88928        3.04871        0.03827
C         -0.07115        1.10433        0.58722
N         -0.28661        2.03843        1.15486
H         -3.75819        0.14237       -1.04885
H         -4.43164       -2.06691        0.09147
H         -2.41666       -3.16113        1.26245
H         -0.01990       -3.02956        0.85882
H          4.15592       -2.24373       -1.08971
H         -1.17626        2.52825        1.07339
H          0.41379        2.74327        1.38125
