29
Coordinates from ORCA-job ./opt_b97-3c_parallel
N          1.85256       -3.15802        1.82228
C          1.56554       -2.18038        1.30573
C          1.15811       -0.97931        0.63246
C          2.18359       -0.08218        0.15095
C          3.57048       -0.41624        0.22928
C          4.25574        0.48403       -0.64751
N          3.34524        1.34894       -1.23378
C          2.09651        1.00559       -0.76225
C          1.02657        1.94739       -0.92542
C          0.23282        2.17175        0.26054
N          0.31949        3.25190        0.50084
C         -0.86076        1.35717        0.52337
C         -1.98382        1.95268        1.20353
N         -2.86768        1.95741        1.92768
C         -1.08151        0.08641        0.01642
C         -2.31015       -0.46728       -0.26260
C         -3.72496       -0.26758       -0.37601
N         -4.61395       -0.62261       -1.00163
C         -2.02111       -1.84313       -0.50504
N         -2.28740       -2.89313       -0.74211
N         -0.69214       -2.15584       -0.33803
C         -0.09951       -0.96574       -0.08980
H          4.02744       -1.24045        0.76839
H          5.32974        0.53788       -0.88300
H          1.34289        2.81249       -1.51221
H         -0.42900        3.89151        0.76684
H          1.18065        3.79817        0.51843
H         -2.18967       -3.90315       -0.63501
H         -3.24410       -2.73700       -1.06676
