25
Coordinates from ORCA-job ./opt_b97-3c_parallel
N         -2.61677        3.20146        0.80336
C         -1.83274        2.42065        0.52565
C         -0.88698        1.40995        0.15405
C         -1.31777        0.01327        0.07367
C         -2.70219       -0.31780        0.24886
C         -2.85123       -1.72216       -0.00210
N         -3.72402       -2.40093        0.00246
N         -1.60878       -2.25804       -0.30733
C         -0.67356       -1.23891       -0.24695
C          0.72090       -1.58991       -0.41653
C          1.80538       -0.79273       -0.15607
N          2.67516       -1.66710        0.32841
C          3.82879       -1.01965        0.50118
N          3.72630        0.29328        0.14793
C          2.41942        0.42619       -0.25947
N          1.39913        1.10060       -0.68409
C          0.43452        1.84393       -0.24682
N          0.94261        2.82200       -0.34482
H         -3.51518        0.36264        0.48678
H         -4.65823       -2.16872        0.34522
H         -3.78615       -3.37379       -0.30251
H          0.86903       -2.62478       -0.73211
H          4.79769       -1.39539        0.86915
H          0.10791        3.37711       -0.53537
H          1.71313        3.49039       -0.30946
