22
Coordinates from ORCA-job ./opt_b97-3c_parallel
N          0.01288        3.41023       -1.09640
C         -0.00995        2.30250       -0.82040
C          0.00610        0.91477       -0.44778
C         -1.31669        0.34016       -0.13665
C         -2.45493        1.09051       -0.00088
C         -3.43983        0.30405        0.41146
C         -3.04736       -0.95281        0.54120
C         -1.74410       -1.00719        0.16666
N         -1.13401       -2.12143       -0.23755
C         -0.01007       -2.01012       -0.91139
N          1.09460       -2.17882       -0.14368
C          1.74739       -1.00003        0.12842
N          3.04138       -0.94884        0.56920
C          3.41099        0.37914        0.51337
C          2.43479        1.17425       -0.02369
C          1.34224        0.35441       -0.14948
H         -2.55911        2.15956       -0.17722
H         -4.45093        0.64994        0.61582
H         -3.66535       -1.78986        0.85879
H         -0.16029       -3.10068       -0.88480
H          4.42622        0.66409        0.83153
H          2.35538        2.21063        0.29909
