28
Coordinates from ORCA-job ./opt_b97-3c_parallel
N         -0.71924        1.32551       -3.14411
C         -0.26299        1.43064       -2.10027
C         -0.23483        1.16906       -1.02494
C          0.85472        1.53410       -0.28401
N          1.28948        2.77296        0.15609
C          2.41353        2.69083        0.86584
C          2.73908        1.40382        0.93936
C          1.83384        0.66279        0.26914
C          1.87658       -0.72054        0.18223
C          2.78885       -1.65680        0.76785
N          3.84633       -2.07189        0.64760
C          0.86461       -1.39119       -0.60053
N          0.99127       -1.66584       -1.66570
C         -0.39131       -1.75411        0.01058
C         -0.59074       -3.07058        0.53574
N         -0.78945       -4.11122        0.96219
C         -1.41098       -0.72797        0.08460
N         -2.64475       -0.95648        0.64297
C         -3.34010        0.23412        0.52982
N         -4.36036        0.15856        0.94146
N         -2.53410        1.18496       -0.08346
C         -1.31238        0.61707       -0.38759
H          2.97331        3.52998        1.30714
H          3.62056        1.01770        1.44781
H          1.91713       -1.37970       -1.98625
H          0.88141       -2.63526       -1.96510
H         -4.98790        0.96220        0.92547
H         -4.93297       -0.64435        1.20191
