29
Coordinates from ORCA-job ./opt_b97-3c_parallel
N         -1.65364       -4.12262        0.27103
C         -1.73047       -2.98738        0.17353
C         -1.77331       -1.55824        0.06335
C         -0.60600       -0.72171        0.03023
C          0.73344       -1.29538        0.11443
C          1.97472       -0.67341        0.02708
N          3.12430       -1.34489        0.14930
C          4.14844       -0.43643       -0.03295
N          5.15480       -0.88171        0.03353
N          3.62836        0.81948       -0.27867
C          2.29802        0.69599       -0.24929
C          1.51987        1.78235       -0.52152
C          0.75876        2.29874        0.48336
N          0.28488        3.25893        0.73639
N         -0.23142        1.65979       -0.04654
C         -1.02961        0.64360       -0.05549
C         -2.40654        0.63677       -0.10427
C         -3.19862        1.82894       -0.19574
N         -3.80772        2.56422       -0.82111
C         -2.86639       -0.72508       -0.03166
N         -3.92494       -1.04736       -0.04250
H          0.75837       -2.37063        0.25762
H          5.43054       -1.86230        0.07736
H          5.99320       -0.35861       -0.21684
H          1.77624        2.41418       -1.37266
H          0.81157        4.12268        0.85522
H         -0.69291        3.53021        0.63593
H         -4.71828       -0.45654       -0.28910
H         -4.28914       -1.99265        0.06894
