29
Coordinates from ORCA-job ./opt_b97-3c_parallel
N         -2.72136       -2.71149       -2.12622
C         -2.47133       -1.81247       -1.46744
C         -2.11697       -0.71144       -0.62849
C         -0.78974       -0.17483       -0.47733
C         -0.01860       -0.92483        0.46912
C          1.40049       -0.78220        0.34283
C          2.24560       -1.75977        0.76536
C          3.21643       -1.12964        0.02559
N          4.18219       -1.67385        0.03722
C          3.33932        0.02621       -0.70656
C          2.02142        0.23966       -0.44419
N          1.67273        1.58214       -0.66296
C          0.61383        2.27060       -0.17344
N          1.16252        3.20634       -0.37972
C         -0.61629        2.06701        0.43014
C         -1.34249        0.83197        0.36727
N         -2.39019        0.68426        0.68577
C         -3.07383       -0.03482        0.20125
N         -4.09287        0.12297        0.59402
H         -0.41412       -1.76009        1.04293
H          2.00147       -2.81048        0.60677
H          4.19919       -2.63402       -0.30541
H          5.11720       -1.48433        0.39707
H          4.09406        0.77355       -0.45822
H          1.95122        3.75304       -0.03507
H          0.62554        3.83021       -0.98186
H         -1.15627        2.90760        0.86034
H         -4.80245        0.83492        0.75734
H         -4.58724       -0.74556        0.39883
