26
Coordinates from ORCA-job ./opt_b97-3c_parallel
N         -0.31775        3.04166       -2.15167
C         -0.07325        2.09469       -1.56372
C          0.17599        0.90636       -0.79923
C          1.50521        0.71917       -0.22892
C          2.46802        1.69196       -0.27451
C          3.33188        1.28295        0.70927
N          3.05515        0.04211        1.25055
C          1.88849       -0.33638        0.65727
C          1.55111       -1.67264        0.69817
C          0.78568       -2.22970       -0.37443
N          0.42425       -3.07541       -0.98623
N         -0.52726       -1.94517       -0.70450
C         -1.13423       -1.04126        0.08770
N         -2.47542       -1.18012        0.35511
C         -3.01595        0.08696        0.51110
N         -4.10262        0.08475        0.72190
C         -2.09663        1.04737        0.17278
C         -0.93541        0.36166       -0.04692
H          2.22866        2.74886       -0.37348
H          4.25462        1.78577        1.03875
H          2.19253       -2.34713        1.26069
H          1.41881       -3.17408       -1.18986
H          0.01161       -3.99396       -1.15051
H         -4.68950        0.91183        0.59579
H         -4.73751       -0.64254        1.05700
H         -2.09231        2.02374        0.65512
