26
Coordinates from ORCA-job ./opt_b97-3c_parallel
N         -0.83249        2.39439       -1.85865
C         -0.31271        1.62248       -1.19707
C          0.27738        0.62185       -0.35665
C          1.69676        0.52730       -0.21332
C          2.63195        1.47782       -0.47068
C          3.67290        1.18999        0.30263
C          3.46395        0.10511        1.04558
C          2.21705       -0.36342        0.76393
N          2.34657       -1.71435        0.46929
C          1.50464       -2.51201       -0.30637
C          0.17786       -2.39790       -0.68984
C         -0.70539       -1.33358       -0.29462
N         -2.00605       -1.55837       -0.53458
C         -2.70179       -0.63643        0.10616
N         -3.73850       -0.93597       -0.13840
C         -1.82139        0.17141        0.76417
C         -2.33315        1.22549        1.58038
N         -2.78162        2.06325        2.21304
C         -0.53789       -0.16637        0.40948
H          2.55262        2.30708       -1.17047
H          4.59153        1.77229        0.32576
H          4.16652       -0.32296        1.75800
H          2.02742       -3.45530       -0.52844
H         -0.25344       -3.22848       -1.24239
H         -4.37504       -0.13768       -0.14304
H         -4.33047       -1.76669       -0.16054
