27
Coordinates from ORCA-job ./opt_b97-3c_parallel
N          0.01491        3.79981       -0.02384
C         -0.02782        2.65757       -0.05672
C         -0.04112        1.21871       -0.09160
C          1.23104        0.54305        0.08846
C          2.41762        1.23020        0.48922
C          3.44395        0.34820        0.43686
C          2.96756       -0.81342        0.00803
C          1.62330       -0.72912       -0.23705
C          0.78696       -1.51454       -0.95746
C          0.15571       -2.24811       -0.00695
N          0.46749       -3.28131        0.24112
C         -1.13466       -1.89825        0.50706
C         -1.79078       -0.67918        0.09415
C         -3.14836       -0.59111        0.14667
C         -3.49365        0.62520       -0.21512
C         -2.41977        1.34818       -0.46452
C         -1.29513        0.59065       -0.23177
H          2.47834        2.27935        0.76037
H          4.47778        0.55707        0.70098
H          3.56406       -1.71153       -0.13250
H          1.09484       -1.94740       -1.90694
H         -0.24824       -4.00530        0.24392
H          1.35851       -3.74318        0.41349
H         -1.72952       -2.66296        1.00248
H         -3.83355       -1.39849        0.39506
H         -4.51742        0.97945       -0.30848
H         -2.45694        2.37658       -0.81710
