29
Coordinates from ORCA-job ./opt_b97-3c_parallel
N         -4.48735       -2.29717        0.01488
C         -3.64136       -1.52920        0.02431
C         -2.55193       -0.59114        0.02247
C         -1.18089       -0.78172        0.00945
C         -0.63511       -2.04505       -0.02149
C          0.49424       -2.82249        0.02688
C          1.90454       -2.50949        0.00593
C          2.45273       -1.18077       -0.02189
C          3.85563       -0.98382       -0.04216
C          4.09013        0.35111       -0.05358
N          5.27757        0.97562       -0.07754
C          2.89944        0.95212       -0.03983
C          1.86475        0.04960       -0.02075
N          0.72442        0.64071       -0.00259
C         -0.55234        0.49810        0.01104
C         -1.52776        1.46271        0.02297
C         -1.34651        2.88462        0.02430
N         -1.23462        4.02304        0.02542
C         -2.81523        0.82530        0.02854
N         -3.79631        1.34255        0.03436
H         -1.44023       -2.76956       -0.10904
H          0.32956       -3.89586        0.05021
H          2.59965       -3.34288        0.01681
H          4.58856       -1.78465       -0.04288
H          5.36520        1.92811        0.26857
H          6.12555        0.46869        0.16736
H          2.77307        2.03486       -0.04555
H         -4.69676        0.86852        0.01266
H         -3.98437        2.34299        0.01670
