24
Coordinates from ORCA-job ./opt_b97-3c_parallel
N          0.00328        2.24258        1.95549
C          0.02848        2.15034        0.81479
C          0.02718        1.16666        0.28141
C         -1.11469        0.50816       -0.02233
C         -2.35770        0.96786        0.10215
C         -3.32333        0.10557       -0.32365
N         -4.42741        0.14955       -0.41477
N         -2.51599       -1.00318       -0.57289
C         -1.14948       -0.79079       -0.40872
N         -0.62232       -2.05584       -0.22587
C          0.64398       -2.03211        0.32935
N          0.82500       -3.08960        0.61405
N          1.86787       -1.52062        0.71771
C          2.20551       -0.24620        0.27062
N          3.48730        0.06769       -0.11394
C          3.45973        1.27507       -0.78816
N          2.14053        1.70260       -0.81362
C          1.31867        0.81894       -0.12602
H         -2.59934        1.97858        0.43374
H         -5.09522       -0.48435       -0.86270
H         -5.00568        0.93769       -0.10899
H          1.70283       -3.61078        0.52596
H          0.17394       -3.78244        0.99360
H          4.31472        1.80814       -1.23728
