27
Coordinates from ORCA-job ./opt_b97-3c_parallel
N          4.62685        1.73106       -0.00127
C          3.69417        1.06951        0.01012
C          2.49927        0.26943        0.01369
C          1.14805        0.54193        0.00721
C          0.74037        1.84342       -0.01770
C         -0.30446        2.69827        0.01221
C         -1.71236        2.47985        0.00678
C         -2.45579        1.24651       -0.00455
C         -3.81536        1.31445       -0.00898
C         -4.29220        0.08297       -0.00693
C         -3.31965       -0.81321       -0.00326
C         -2.11526       -0.16188       -0.00159
C         -0.96410       -0.94960        0.00700
C         -0.89071       -2.38679        0.01215
N         -1.14933       -3.50093        0.00938
C          0.46341       -0.71128        0.01375
N          1.54750       -0.96942        0.02041
C          2.63983       -1.15269        0.02067
N          3.32826       -2.01355        0.02509
H          1.60867        2.49385       -0.06237
H         -0.05972        3.75691        0.01928
H         -2.30917        3.38730        0.00991
H         -4.41268        2.22358       -0.01179
H         -5.35132       -0.16234       -0.00784
H         -3.48325       -1.88826        0.00059
H          4.25582       -1.60134       -0.06246
H          3.44050       -3.02091       -0.06042
