28
Coordinates from ORCA-job ./opt_b97-3c_parallel
N         -3.90038       -2.51646        0.92347
C         -3.05109       -1.80818        0.63438
C         -1.99665       -0.92106        0.22961
C         -2.32476        0.46088       -0.12033
C         -3.63690        0.82717       -0.23445
C         -3.60978        2.19349       -0.26624
N         -2.33478        2.71398       -0.17999
C         -1.48530        1.64180       -0.10248
C         -0.15054        1.95539        0.11426
C          0.94984        1.13833        0.06491
C          2.26450        1.62711        0.32338
C          3.28661        0.72556        0.15790
N          4.50357        1.27910        0.01997
C          2.49938       -0.33794       -0.21301
C          3.25419       -1.52540       -0.48120
N          3.74263       -2.53971       -0.28396
C          1.08611       -0.14330       -0.30677
N          0.25145       -1.03445       -0.70015
C         -0.69270       -1.50613        0.03828
N         -0.26208       -2.51878        0.16580
H         -4.31256        0.28119       -0.88858
H         -4.41887        2.93579       -0.33200
H          0.06496        3.00784        0.28155
H          2.41443        2.66351        0.61296
H          5.32179        0.68637       -0.10596
H          4.77454        2.07632        0.59169
H         -0.99497       -3.19354        0.37654
H          0.61782       -3.03048        0.14581
