20
Coordinates from ORCA-job ./opt_b97-3c_parallel
N          0.08443        2.47527        1.56193
C          0.06122        2.07931        0.48805
C         -0.07218        1.03575        0.10917
C         -1.29805        0.52344       -0.15054
C         -2.45432        1.19462       -0.15545
C         -3.58229        0.55529       -0.43346
N         -2.85265       -0.53868       -0.49048
C         -1.50587       -0.80078       -0.36126
N         -1.23089       -2.12192       -0.11624
C          0.00296       -2.21415        0.47680
N          1.26795       -1.89498        0.91272
C          1.82594       -0.72298        0.41782
N          3.16697       -0.67642        0.12705
C          3.40255        0.44869       -0.63882
N          2.18911        1.09333       -0.81937
C          1.16803        0.43408       -0.14183
H         -2.49793        2.26852        0.02568
H         -4.65073        0.80714       -0.53046
H         -0.05386       -3.26358        0.81255
H          4.38535        0.75508       -1.03385
