27
Coordinates from ORCA-job ./opt_b97-3c_parallel
N          0.78943        2.99476        0.85419
C          0.45233        2.22828        0.07442
C         -0.03945        1.23021       -0.03584
C         -1.40108        1.23046       -0.14199
C         -2.22131        2.29251       -0.16815
C         -3.53190        2.12295       -0.27579
N         -3.24996        0.84005       -0.28574
C         -2.11037        0.07039       -0.23457
N         -2.41594       -1.18698       -0.19709
C         -1.60760       -2.09383        0.25481
N         -2.26138       -2.76702        0.83276
C         -0.37504       -2.21446       -0.32318
C          0.51476       -1.17953       -0.17136
N          1.67774       -1.95416       -0.16748
C          2.66989       -1.07672       -0.04550
N          3.41978       -1.89734       -0.08312
C          2.19544        0.20067        0.04461
C          3.38664        0.98761        0.17354
N          4.35901        1.57655        0.27417
C          0.81775        0.16504       -0.04350
H         -1.84946        3.31532       -0.10617
H         -4.37969        2.82570       -0.31705
H         -1.94248       -3.61556        1.30080
H         -3.28016       -2.83136        0.81380
H         -0.25874       -2.93671       -1.13323
H          3.76202       -2.82911       -0.32655
H          4.26572       -1.34331        0.07513
