26
Coordinates from ORCA-job ./opt_b97-3c_parallel
N         -1.24472       -3.53955        0.03259
C         -1.09751       -2.40749        0.00421
C         -0.89881       -0.97474        0.00531
C         -2.09985       -0.16058        0.00784
C         -3.39668       -0.79032        0.01693
C         -4.38016        0.14099        0.01752
C         -3.82414        1.33880        0.00980
C         -2.46392        1.22673        0.00402
C         -1.68919        2.42374       -0.01228
C         -0.28209        2.63088       -0.02421
N          0.87366        1.88790       -0.01677
C          1.20229        0.58870       -0.00187
C          2.54371        0.30412        0.00074
C          3.70487        1.14021       -0.00617
N          4.65930        1.76693       -0.01217
C          2.68409       -1.10329        0.00930
N          3.48027       -1.87279        0.01341
N          1.42138       -1.64257        0.01274
C          0.47161       -0.66603        0.00533
H         -3.57616       -1.86026        0.02360
H         -5.44858       -0.06358        0.02237
H         -4.37842        2.27547        0.00715
H         -2.26546        3.34453       -0.01816
H         -0.04742        3.70630       -0.03689
H          4.44546       -1.53742       -0.00690
H          3.53773       -2.89065        0.00590
