26
Coordinates from ORCA-job ./opt_b97-3c_parallel
N          4.10233        1.54099       -1.23720
C          3.27361        0.85462       -0.85197
C          2.24997        0.00497       -0.32048
C          0.86117        0.30851       -0.05834
C          0.68038        1.68165        0.33847
C         -0.66455        2.13866        0.20141
N         -1.10705        3.13092        0.38542
N         -1.60673        1.35077       -0.19956
C         -2.33695        0.28583       -0.15330
C         -3.68951        0.42211       -0.24320
C         -4.07089       -0.89104       -0.12184
N         -3.06032       -1.81801        0.05607
C         -1.92042       -1.06522        0.03965
C         -0.69247       -1.68357        0.22939
C          0.62369       -1.07493        0.24807
N          1.56547       -1.62054        0.41717
C          2.56996       -1.33425        0.07552
N          3.30390       -2.15103        0.18785
H          1.46044        2.36167        0.66653
H         -1.93757        3.71040        0.27917
H         -0.30834        3.76173        0.41643
H         -4.14586        1.06775       -0.98907
H         -5.06677       -1.35813       -0.12803
H         -0.70621       -2.75800        0.39646
H          3.47392       -3.15140        0.11146
H          4.13895       -1.67668       -0.14924
