27
Coordinates from ORCA-job ./opt_b97-3c_parallel
N         -3.88258       -2.12578        0.52172
C         -2.89993       -1.55772        0.37558
C         -1.67813       -0.82776        0.15952
C         -1.68409        0.62450        0.07513
C         -2.93078        1.31176        0.21288
C         -2.67088        2.70553        0.06592
N         -1.32187        2.89670       -0.15465
C         -0.69555        1.66297       -0.15112
C          0.74589        1.75066       -0.32545
C          1.75810        0.72623       -0.28622
C          3.08017        1.03533       -0.35680
C          3.39871       -0.28418       -0.16081
N          4.49037       -0.45803       -0.09768
C          2.60352       -1.40325       -0.12785
C          1.46706       -0.64811       -0.19541
N          0.63522       -1.37407       -0.17272
C         -0.43869       -1.52583       -0.01007
N         -0.33444       -2.63430       -0.00607
H         -3.90931        0.87872        0.39332
H         -3.34524        3.57376        0.10321
H          1.13391        2.75830       -0.44444
H          3.49739        1.82578        0.26600
H          4.95450       -1.13861        0.50100
H          5.12781        0.32970       -0.19606
H          2.74709       -2.16345        0.64328
H          0.35943       -3.34470       -0.23285
H         -1.15288       -2.83313       -0.57850
