27
Coordinates from ORCA-job ./opt_b97-3c_parallel
N          4.15392       -2.71959       -0.01733
C          3.35113       -1.90633        0.00949
C          2.32449       -0.88946        0.00310
C          0.94168       -0.98230       -0.06503
C          0.45093       -2.33637       -0.18578
C         -0.78395       -2.91857       -0.09703
C         -2.10131       -2.43805        0.14494
C         -2.67097       -1.19095        0.15183
N         -3.99886       -1.22013        0.31567
C         -4.47403        0.06792        0.19227
N         -3.38112        0.86855       -0.04595
C         -2.23675        0.09048       -0.06019
C         -0.97518        0.80799       -0.22248
C         -1.12735        2.21685       -0.50246
N         -1.28437        3.32321       -0.74936
C          0.38556        0.28126       -0.06935
C          1.43334        1.18876        0.03758
C          1.73461        2.59864        0.13820
N          1.98806        3.65395        0.49814
C          2.64552        0.51778        0.08460
N          3.72845        0.78041        0.15975
H          1.21205       -3.10032       -0.29140
H         -0.77312       -4.00399       -0.14171
H         -2.78741       -3.27338        0.26835
H         -5.46353        0.54740        0.23795
H          4.62283        0.29270        0.14848
H          3.93409        1.77631        0.22293
