26
Coordinates from ORCA-job ./opt_b97-3c_parallel
N          0.19015       -2.78003       -1.68227
C          0.16871       -1.81991       -1.06826
C          0.18928       -0.58978       -0.32542
C          1.52080       -0.24809       -0.13863
C          2.33682       -1.11195        0.46527
C          3.66113       -0.78257        0.42557
N          4.63256       -1.19724        0.76123
N          3.56358        0.44853       -0.21325
C          2.26387        0.81322       -0.53882
N          2.12044        2.15506       -0.79654
C          0.82252        2.52378       -0.52632
N         -0.51030        2.66577       -0.20487
C         -1.31945        1.56665        0.09234
N         -2.66776        1.74798        0.36318
C         -3.29613        0.51287        0.41703
N         -4.37247        0.61743        0.66822
C         -2.32531       -0.50685        0.12970
C         -2.61866       -1.90510        0.16771
N         -2.84453       -3.02099        0.23635
C         -1.04931        0.14854       -0.04158
H          2.00613       -2.07045        0.86801
H          4.95258       -2.15809        0.60793
H          5.40448       -0.75804        1.27092
H          1.04088        3.58301       -0.75019
H         -4.95829       -0.21874        0.58163
H         -5.00498        1.32222        1.05789
