31
Coordinates from ORCA-job ./opt_b97-3c_parallel
N          3.96007        2.25475       -1.71430
C          3.07474        1.81723       -1.14026
C          1.99281        1.21575       -0.41245
C          1.97920       -0.23292       -0.21983
C          3.09000       -0.97239       -0.52909
C          2.82155       -2.25385       -0.12155
N          3.20290       -3.29058       -0.11369
N          1.56250       -2.30944        0.33227
C          0.96433       -1.11428        0.31282
C         -0.49460       -1.08878        0.48690
C         -1.14535       -2.32914        0.80336
N         -1.61338       -3.33656        1.07332
C         -1.27994        0.10382        0.23641
C         -2.67394        0.14242       -0.11349
C         -3.49610       -0.96010       -0.51507
N         -4.12508       -1.84937       -0.85998
C         -3.05197        1.45000       -0.15180
N         -4.24043        1.97924       -0.48468
C         -1.99569        2.17291        0.20492
C         -0.90980        1.38990        0.48051
N          0.17907        1.66127        1.11567
C          1.11191        2.07666        0.33198
N          1.12847        3.17634        0.47777
H          4.09355       -0.56623       -0.41156
H          2.80776       -4.15994        0.24623
H          4.03639       -3.55948       -0.63721
H         -4.95701        1.40252       -0.92445
H         -4.29939        2.91466       -0.88376
H         -1.99107        3.25987        0.26113
H          0.39223        3.77237        0.85282
H          2.00952        3.65213        0.66671
