28
Coordinates from ORCA-job ./opt_b97-3c_parallel
N         -1.63319        2.98302        2.10633
C         -1.31923        2.13321        1.41208
C         -0.87772        1.09600        0.52441
C         -1.81804        0.15923       -0.04191
C         -3.23016        0.27197        0.08145
C         -3.76374       -0.82649       -0.50680
C         -2.77009       -1.58949       -0.95273
C         -1.55132       -1.02976       -0.67310
N         -0.45674       -1.72154       -0.73273
C          0.41881       -2.03912        0.17970
N         -0.08952       -2.86006        0.73268
C          1.52736       -1.24070        0.35346
C          2.47467       -1.82707        0.42213
N          3.53817       -2.11954        0.11760
C          1.43030        0.13080        0.23850
N          2.52507        0.87306       -0.21828
C          2.29244        2.20434       -0.50507
N          3.27962        2.60083       -0.79890
C          0.96304        2.23178       -0.25231
C          0.46423        1.09665        0.21564
H         -3.75927        1.08388        0.57099
H         -4.82513       -1.04532       -0.59930
H         -2.91053       -2.53741       -1.46875
H          0.49174       -3.61828        1.08707
H         -1.02101       -3.24866        0.59289
H          4.12698        2.17784       -1.17840
H          3.51371        3.57478       -0.60545
H          0.37638        3.13813       -0.39798
