28
Coordinates from ORCA-job ./opt_b97-3c_parallel
N          1.30895        2.38583        2.33289
C          0.75619        1.89927        1.45852
C          0.59137        1.20307        0.60626
C          1.45784        0.29374        0.13261
C          2.70777        0.08389        0.51673
C          3.33324       -0.88794       -0.20122
N          4.29270       -1.43307       -0.27376
N          2.24338       -1.36562       -0.92270
C          1.09666       -0.58319       -0.83189
N          0.10118       -1.39205       -0.64597
C         -0.91219       -1.60034        0.14164
N         -0.65006       -2.66848        0.24845
C         -1.99283       -0.66576        0.35912
C         -3.28057       -1.17691        0.71330
N         -4.30418       -1.61500        0.96802
C         -1.82524        0.70639       -0.08185
C         -2.82134        1.54111       -0.48365
C         -2.25564        2.69470       -0.80165
C         -0.94647        2.68071       -0.58996
C         -0.59618        1.46782       -0.05803
H          3.21490        0.66047        1.28939
H          5.16744       -0.90651       -0.22864
H          4.57110       -2.39565       -0.47380
H         -0.25229       -3.48611        0.71030
H         -1.65806       -2.82769        0.22750
H         -3.87934        1.30110       -0.57522
H         -2.80082        3.55355       -1.18873
H         -0.27431        3.51803       -0.76805
