35
Coordinates from ORCA-job ./opt_b97-3c_parallel
N         -6.12568        0.98822       -0.27403
C         -5.02415        0.68495       -0.24573
C         -3.63987        0.28867       -0.16329
C         -3.16399       -0.99501       -0.34049
N         -3.77688       -1.89392       -0.55652
C         -1.76021       -0.92805       -0.08453
C         -1.05499       -2.15032        0.10883
N         -0.09490       -2.20723        0.95412
C          1.09390       -2.19360        0.48044
C          1.79005       -1.00184        0.11768
C          3.20227       -1.08049       -0.09730
N          3.85003       -1.97913       -0.07681
C          3.63104        0.27904       -0.28411
C          5.00396        0.65584       -0.51481
N          6.09602        0.95570       -0.66396
C          2.49951        1.18050       -0.16809
N          2.74420        2.25296       -0.31666
C          1.32780        0.36044        0.09958
C         -0.00843        0.96615        0.30303
N          0.00724        2.06515        0.42353
C         -1.35042        0.35838        0.17214
C         -2.54636        1.18699        0.16804
N         -2.81585        2.25279        0.32704
H         -3.65351       -2.77120       -1.05818
H         -4.76568       -1.65579       -0.62180
H         -1.38845       -3.19218       -0.01237
H          1.38484       -3.24956        0.58763
H          4.74353       -1.58779        0.21839
H          3.56974       -2.63797        0.64731
H          3.57528        2.62654       -0.77327
H          2.01208        2.21347       -1.02420
H          0.84549        2.61996        0.58932
H         -0.60702        2.62367       -0.16666
H         -2.07228        2.20250        1.02182
H         -3.67532        2.46104        0.83268
