26
Coordinates from ORCA-job ./opt_b97-3c_parallel
N         -0.33108       -3.03155       -1.59048
C          0.02162       -2.03505       -1.15893
C          0.42561       -0.76024       -0.64723
C          1.82163       -0.58184       -0.28723
C          2.72227       -1.60249       -0.18665
C          3.70537       -1.20111        0.61022
C          3.52463        0.03982        1.04039
C          2.36946        0.49557        0.48604
C          2.25310        1.84732        0.24046
C          1.54311        2.30283       -0.91510
N          0.18990        2.22478       -1.18738
C         -0.55454        1.59750       -0.26055
N         -1.83124        2.06386        0.00989
C         -2.62206        1.00929        0.43711
N         -3.65558        1.30592        0.70794
C         -1.87180       -0.20310        0.31462
C         -2.39974       -1.49880        0.61979
N         -2.86051       -2.50923        0.88073
C         -0.55270        0.17243       -0.11800
H          2.65654       -2.58106       -0.65941
H          4.56154       -1.81884        0.87575
H          4.19707        0.59261        1.69437
H          3.00561        2.51568        0.65196
H          1.14634        2.92318       -1.73406
H         -4.25938        2.12813        0.76762
H         -4.27233        0.51078        0.89088
