28
Coordinates from ORCA-job ./opt_b97-3c_parallel
N          3.40871        3.39694       -0.41809
C          2.57387        2.63045       -0.29297
C          1.57216        1.62380       -0.13198
C          1.78900        0.19489       -0.07324
C          3.14071       -0.43824       -0.16731
C          3.66459       -1.68011        0.03676
N          4.62423       -2.23176       -0.01225
N          2.40486       -2.15231        0.34595
C          1.44942       -1.15649        0.30080
N          0.22771       -1.83975        0.37559
C         -1.07399       -1.33252        0.24479
N         -2.21192       -2.12336        0.16163
C         -3.32329       -1.31019       -0.00548
N         -4.25158       -1.91136       -0.09611
C         -2.87876        0.05134       -0.01598
C         -3.71182        1.19711       -0.20247
N         -4.39074        2.09361       -0.39091
C         -1.46041        0.04660        0.17207
N         -0.71694        1.09928        0.28091
C          0.21218        1.98842        0.13815
N         -0.51757        2.79833        0.29227
H          3.82336        0.35541       -0.46582
H          5.49548       -1.82836       -0.36399
H          4.88163       -3.17166        0.29402
H         -5.07174       -1.38448       -0.40945
H         -4.61739       -2.83980        0.13005
H          0.31797        3.36629        0.43793
H         -1.30320        3.43008        0.45155
