24
Coordinates from ORCA-job ./opt_b97-3c_parallel
N          2.29609        1.58499       -2.20668
C          1.70051        1.37236       -1.25464
C          1.25859        0.77209       -0.42685
C          1.70967       -0.37319        0.10890
C          2.83828       -1.00483       -0.20785
C          3.12963       -2.15708        0.37889
N          1.94220       -1.97466        0.91551
C          0.96364       -1.01098        1.04526
N         -0.14208       -1.56544        0.66181
C         -1.14610       -1.41914       -0.14839
N         -1.24338       -2.51634       -0.23345
C         -1.85213       -0.18082       -0.37989
C         -3.23347       -0.24658       -0.75116
N         -4.33814       -0.33871       -1.02599
C         -1.24003        1.06854        0.03559
N         -2.01358        2.13027        0.42586
C         -1.14534        3.12569        0.83255
N          0.15853        2.69287        0.64729
C          0.15323        1.42422        0.09160
H          3.53295       -0.59435       -0.93956
H          4.01583       -2.78476        0.19456
H         -2.24035       -2.38817       -0.41016
H         -1.04333       -3.49146       -0.45281
H         -1.56988        4.06850        1.21171
