33
Coordinates from ORCA-job ./opt_b97-3c_parallel
N         -3.92469        2.94091       -0.91655
C         -3.06246        2.23649       -0.65690
C         -1.98841        1.36058       -0.27621
C         -0.68112        1.94036       -0.11368
N         -0.29337        2.96807       -0.27032
C          0.31871        1.40403        0.62643
C          1.24656        0.58215        0.08278
C          2.64756        0.79688       -0.11521
C          3.24952        2.08143        0.07075
N          3.74933        3.10204        0.19291
C          3.38637       -0.33013       -0.41839
N          4.72236       -0.50002       -0.41851
C          2.37400       -1.26378       -0.35495
C          2.72319       -2.64693       -0.52003
N          2.88335       -3.63258        0.03888
C          1.07469       -0.73833       -0.09417
C         -0.07404       -1.58432        0.07606
C         -1.45850       -1.16256        0.19591
C         -2.36592       -2.24782        0.32118
C         -3.64185       -1.81520        0.25699
N         -4.77828       -2.52474        0.29898
C         -3.56837       -0.49871        0.10766
C         -2.27091       -0.03417        0.05545
H          0.40097        3.71331       -0.25955
H         -1.20355        3.42399       -0.21924
H          0.37253        1.61756        1.69374
H          5.11818       -1.40711       -0.17173
H          5.32847        0.21969       -0.02775
H          0.10400       -2.65492        0.07217
H         -2.07149       -3.29153        0.38058
H         -5.63522       -2.13596       -0.08999
H         -4.76186       -3.51892        0.07812
H         -4.45380        0.12837        0.02795
