31
Coordinates from ORCA-job ./opt_b97-3c_parallel
N          4.77086       -0.80090        2.00441
C          3.93906       -0.34810        1.36469
C          2.92156        0.20460        0.52204
C          1.71070       -0.42111        0.05843
C          1.96827       -1.71653       -0.51566
C          0.85514       -2.61157       -0.42614
N          0.74499       -3.65418       -0.75877
N         -0.26815       -2.25714        0.10763
C         -1.14807       -1.30826        0.14446
C         -2.50807       -1.68981        0.39046
C         -3.48622       -0.72502        0.41021
N         -4.69327       -1.26642        0.66546
C         -2.64923        0.32684        0.13485
C         -3.62337        1.38273        0.13361
N         -4.07824        2.31465        0.61596
C         -1.25428        0.04624       -0.01848
C         -0.31359        1.04246       -0.30413
C         -0.74087        2.38258       -0.58102
N         -1.04859        3.45634       -0.82403
C          1.11982        0.82308       -0.35422
N          2.08566        1.33065       -0.52464
C          3.04527        1.52381       -0.02019
N          3.52600        2.50115       -0.18995
H          2.90263       -2.03445       -0.96861
H          0.11864       -4.36887       -1.12274
H          1.68754       -3.91183       -1.04463
H         -2.72610       -2.74537        0.53965
H         -4.76935       -2.11067        1.22926
H         -5.47798       -0.66084        0.90281
H          4.28349        2.35447        0.47398
H          3.16522        3.43969       -0.03099
