31
Coordinates from ORCA-job ./opt_b97-3c_parallel
N         -3.94980       -2.75303       -0.02394
C         -3.52131       -1.69374       -0.02824
C         -3.01985       -0.35172       -0.02676
C         -1.63515        0.04075       -0.00806
C         -0.63126       -0.91219        0.01748
C          0.82489       -0.83317        0.02022
C          1.43690       -2.07602        0.02509
C          1.00098       -3.43896        0.03278
N          0.68392       -4.53712        0.02851
C          2.84568       -1.84013        0.00984
N          3.84200       -2.32444        0.00175
N          3.03659       -0.47966       -0.00109
C          1.79814        0.16113        0.00482
C          1.87448        1.62697       -0.01602
C          3.20774        2.19880       -0.04457
N          4.27359        2.61084       -0.06005
C          0.73665        2.54381       -0.00549
N          0.95952        3.63799       -0.02926
C         -0.62735        2.37480        0.07063
C         -1.63888        1.47040       -0.00893
N         -2.96007        1.92214       -0.02207
C         -3.72103        0.82080       -0.03216
N         -4.80107        1.07145       -0.03427
H         -1.00417       -1.92898        0.02675
H          4.83091       -2.06936       -0.02133
H          3.82735       -3.34666        0.00475
H          1.93262        3.94380        0.02510
H          0.41491        4.50052       -0.00275
H         -1.14780        3.33501        0.21122
H         -5.46414        0.29364       -0.02687
H         -5.37593        1.91485       -0.01607
