41
Coordinates from ORCA-job ./opt_b97-3c_parallel
N         -0.04819       -3.52234        2.48070
C         -0.02814       -2.54820        1.88251
C         -0.02919       -2.26713        0.79750
C          1.08244       -1.97150        0.04131
N          1.54421       -2.86585       -0.43939
C          1.66718       -0.64584       -0.07077
C          2.89583       -0.38902       -0.75397
N          3.58890       -0.98979       -1.37576
C          3.11293        0.99033       -0.40267
C          4.25250        1.72430       -0.88908
N          5.13926        2.31509       -1.30339
C          2.20844        1.58385        0.45203
N          2.31592        2.86746        0.85280
C          1.27192        0.57664        0.57497
C          0.03877        0.66638        1.35843
N          0.04255        1.49445        2.09144
C         -1.17983        0.53376        0.56124
C         -2.11845        1.61717        0.36882
N         -2.16379        2.68131        0.67860
C         -3.16107        1.05670       -0.47324
C         -4.29720        1.82707       -0.91841
N         -5.20594        2.41367       -1.28824
C         -2.89593       -0.27881       -0.73571
N         -3.61343       -0.87910       -1.33006
C         -1.65944       -0.58371       -0.06847
C         -1.13267       -1.92660        0.04829
N         -1.62317       -2.80794       -0.42730
H          2.48976       -2.55400       -0.22253
H          1.42012       -3.76178        0.02941
H          3.22203       -1.78117       -1.90176
H          4.39156       -0.63370       -1.89274
H          2.98068        3.49020        0.39561
H          1.48190        3.40575        1.07815
H          0.87443        1.96783        2.44034
H         -0.76476        1.96605        2.49467
H         -1.39746        3.23488        1.05589
H         -2.89651        3.33322        0.40299
H         -4.40798       -0.52778       -1.86258
H         -3.23559       -1.67187       -1.84620
H         -2.55541       -2.47058       -0.19176
H         -1.51577       -3.71076        0.03246
