29
Coordinates from ORCA-job ./opt_b97-3c_parallel
N          3.43156        3.25049        0.45567
C          2.95676        2.21938        0.32643
C          2.30324        0.94983        0.15463
C          0.87322        0.86086        0.15361
N          0.11846        1.99206        0.46520
C         -1.11394        2.15687       -0.12052
N         -1.13370        3.11473        0.43425
N         -1.47197        1.48415       -1.16560
C         -2.35291        0.69112       -0.66005
C         -3.70691        0.78113       -0.78257
C         -4.23885       -0.30854       -0.24790
C         -3.31173       -1.12286        0.23614
C         -2.09506       -0.54769        0.01024
C         -0.79547       -1.19353        0.15423
C         -0.83546       -2.58564        0.49308
N         -0.89435       -3.68614        0.79447
C          0.50652       -0.52845       -0.00932
C          1.67977       -1.25223       -0.13341
C          2.13525       -2.60558       -0.30533
N          2.01141       -3.13818       -1.30941
C          2.78928       -0.32577       -0.06145
N          3.89451       -0.41473       -0.11790
H         -2.08219        3.48828        0.44648
H         -0.54007        3.85329        0.81369
H         -4.25892        1.59109       -1.25607
H         -5.30727       -0.51303       -0.21422
H         -3.50369       -2.07711        0.72314
H          4.67726        0.18494       -0.37799
H          4.22586       -1.37416       -0.21802
