26
Coordinates from ORCA-job ./opt_b97-3c_parallel
N         -1.53132        2.69126       -1.85207
C         -1.17104        1.75104       -1.30979
C         -0.98570        1.04090       -0.47506
C         -1.89469        0.22004        0.08460
C         -3.19701        0.16373       -0.19856
C         -3.96480       -0.73000        0.41074
N         -2.81535       -1.11122        0.92560
C         -1.50592       -0.68828        1.01304
N         -0.71280       -1.64961        0.66416
C          0.25226       -1.99049       -0.13420
N         -0.11398       -3.03095       -0.17844
C          1.41914       -1.18482       -0.41637
C          2.63136       -1.84864       -0.78796
N          3.61562       -2.36558       -1.04478
C          1.42215        0.23441       -0.09116
N          2.60780        0.89045        0.15144
C          2.30531        2.20290        0.46856
N          3.12450        2.90003        0.71157
N          0.92673        2.35244        0.37655
C          0.32461        1.16277       -0.02306
H         -3.65369        0.84292       -0.91894
H         -5.04043       -0.94722        0.30819
H          0.76865       -3.45994       -0.45987
H         -0.80829       -3.77705       -0.23303
H          4.09774        2.74012        0.97617
H          3.05549        3.90032        0.51860
