25
Coordinates from ORCA-job ./opt_b97-3c_parallel
N          0.16483       -3.47699        0.18476
C          0.14348       -2.33682        0.16946
C          0.10181       -0.90254        0.10884
C          1.37338       -0.21411        0.13321
N          2.52490       -0.80186        0.21563
C          3.67077       -0.36084       -0.18474
N          4.64674       -0.88042       -0.16910
C          2.88774        0.76119       -0.15102
C          1.44785        1.19358       -0.02463
C          1.23222        2.59832        0.09987
C         -0.05159        3.07717        0.11804
N         -1.27884        2.42773        0.03557
C         -1.71463        1.10009       -0.02688
N         -3.08934        1.02469       -0.09100
C         -3.48003       -0.30622       -0.09947
N         -4.46830       -0.80102       -0.13496
N         -2.32384       -1.07099       -0.03494
C         -1.20799       -0.25072        0.01209
H          5.55167       -0.40900       -0.23416
H          4.87549       -1.87572       -0.12435
H          3.41741        1.70983       -0.24198
H          2.05281        3.30823        0.17530
H         -0.14341        4.17396        0.18583
H         -5.36878       -0.31866       -0.18213
H         -4.70694       -1.79442       -0.09447
