25
Coordinates from ORCA-job ./opt_b97-3c_parallel
N          0.01978        4.72325        0.00464
C         -0.35312        3.64390        0.01264
C         -0.76949        2.27526        0.01759
C         -2.16177        1.97692        0.06490
C         -2.33253        0.56054        0.06163
C         -3.66224        0.03778        0.11278
N         -4.71265       -0.40626        0.17506
C         -1.07316       -0.00526        0.00977
C         -0.91739       -1.37351       -0.03282
C         -1.78779       -2.51482       -0.05359
N         -2.51219       -3.39996       -0.07255
C          0.11570       -2.27775       -0.07909
N          1.44854       -2.35976       -0.07278
C          2.36064       -1.32644       -0.02219
N          3.67762       -1.74445        0.00277
C          4.48275       -0.62406        0.03147
C          3.65243        0.53500        0.01453
C          2.28996        0.10591       -0.01649
C          1.33232        1.09996       -0.03074
C         -0.11153        1.06375       -0.00745
H         -2.96355        2.70937        0.09996
H          0.57105       -3.28185       -0.11884
H          5.58129       -0.55557        0.06079
H          4.00556        1.56213        0.02972
H          1.74415        2.10544       -0.03508
