29
Coordinates from ORCA-job ./opt_b97-3c_parallel
N          2.44183        4.01809        0.96834
C          1.79337        3.13651        0.64492
C          1.02856        1.99392        0.23927
C         -0.33988        2.23445       -0.19929
C         -1.35854        1.25019       -0.49996
C         -2.57279        1.64187       -1.14218
N         -3.55610        1.90312       -1.65753
C         -1.38480       -0.01137        0.21678
C         -2.61020       -0.62765        0.71566
C         -3.57843       -0.01019        1.57490
N         -4.65362        0.12160        1.21157
C         -2.81929       -1.90242        0.22829
N         -3.49513       -2.78267        0.20716
N         -1.72591       -2.27404       -0.51329
C         -0.89426       -1.17871       -0.47252
N          0.31112       -0.95123       -0.89470
C          1.37488       -0.37176       -0.42568
C          2.46403       -1.22430       -0.43727
C          2.85204       -2.56340       -0.77458
N          2.30323       -3.19101        0.00862
C          3.59157       -0.47819        0.07880
N          4.64964       -0.32294        0.37985
N          3.09825        0.72941        0.38600
C          1.78830        0.82496        0.09687
H         -0.61639        3.27478       -0.35798
H         -4.45212       -2.41666        0.22663
H         -3.60591       -3.79574        0.30092
H          5.26408       -1.13923        0.44112
H          5.28048        0.47594        0.49007
