30
Coordinates from ORCA-job ./opt_b97-3c_parallel
N         -0.33217       -4.51761       -0.16967
C         -0.25415       -3.39283        0.01014
C         -0.21282       -1.97707        0.23839
C          0.79459       -1.58343        1.05357
C          1.73711       -1.05753        0.23261
C          2.78471       -1.97957       -0.09563
N          3.59253       -2.74242       -0.36044
C          1.81854        0.35157       -0.00575
C          2.97071        0.98013       -0.42239
C          4.31577        0.78293       -0.87326
N          4.82864        0.52548       -1.86099
C          2.77506        2.31606       -0.20065
C          1.58612        2.53890        0.34229
C          0.90275        1.36223        0.43959
C         -0.51878        1.27583        0.78812
C         -1.10163        2.46823        1.33532
N         -1.59905        3.39572        1.77603
C         -1.44876        0.27448        0.24928
C         -2.76437        0.59655        0.00290
C         -3.83266        1.55549        0.00818
N         -4.38335        2.08247       -0.84396
C         -3.30933       -0.59572       -0.57777
N         -4.11815       -1.20772       -1.02852
N         -2.40716       -1.63593       -0.66207
C         -1.28053       -1.10157       -0.14671
H          1.06316       -2.13846        1.95184
H          3.50356        3.10289       -0.39996
H          1.22045        3.52497        0.62145
H         -4.63388       -2.07212       -1.19755
H         -4.75884       -0.44962       -1.27332
