30
Coordinates from ORCA-job ./opt_b97-3c_parallel
N         -1.73767       -4.26221        0.64782
C         -1.85252       -3.14286        0.45229
C         -1.94155       -1.73290        0.20620
C         -3.06732       -0.97128        0.01868
N         -4.14710       -1.20173        0.00993
C         -2.80057        0.33728       -0.27979
C         -1.44173        0.46331       -0.12703
C         -0.83523        1.78582       -0.27895
C         -1.61802        2.87657       -0.78969
N         -2.21798        3.76482       -1.18630
C          0.45355        2.11107        0.27604
N          1.01214        3.06240        0.39799
N          1.20248        1.31253        0.95421
C          2.07358        0.56961        0.36291
C          3.41970        0.77508        0.26890
C          3.90292       -0.46087       -0.10895
N          4.84912       -1.00414       -0.28529
N          2.90619       -1.34730       -0.27949
C          1.75649       -0.72527       -0.05745
C          0.50615       -1.41898        0.05134
C         -0.83086       -0.83484        0.11517
H         -4.99621       -0.78733       -0.37167
H         -4.38709       -2.15331        0.28466
H         -3.31572        0.82761       -1.10707
H          0.11448        3.49469        0.61426
H          1.72218        3.74576        0.65508
H          3.80977        1.68884       -0.17553
H          5.07092       -1.95024        0.02531
H          5.70887       -0.63337       -0.69032
H          0.58168       -2.50011       -0.00191
