34
Coordinates from ORCA-job ./opt_b97-3c_parallel
N          5.22252        1.71761        1.36529
C          4.40061        1.05104        0.93369
C          3.35028        0.24802        0.37912
C          3.62213       -1.03177       -0.17419
N          4.52945       -1.65024       -0.30508
C          2.52119       -1.64603       -0.69264
C          1.49197       -0.76905       -0.41148
C          0.10380       -1.26023       -0.43148
C         -0.13570       -2.63716       -0.76167
N         -0.31258       -3.72593       -1.06179
C         -1.04031       -0.41827       -0.12768
C         -2.32065       -0.87520        0.35056
C         -2.60029       -2.15466        0.93547
N         -2.83281       -3.15641        1.43290
C         -3.31093        0.08002        0.41683
N         -4.64673       -0.05169        0.51864
C         -2.58945        1.12416       -0.11093
C         -3.18426        2.39879       -0.38176
N         -3.59129        3.43974       -0.14237
C         -1.22681        0.87832       -0.45989
C         -0.31437        1.62071       -1.13941
C          0.31583        2.19412       -0.08174
N          0.11631        3.24876        0.19365
C          1.45894        1.61347        0.56325
C          2.00459        0.39982        0.16601
H          5.30625       -1.20131        0.17705
H          4.69974       -2.65355       -0.27213
H          2.40528       -2.72700       -0.60963
H         -5.04756       -0.87330        0.96838
H         -5.22620        0.75324        0.75016
H         -0.59446        2.19183       -2.02324
H          0.95420        3.81823        0.08600
H         -0.67949        3.88110        0.11794
H          2.02734        2.28031        1.20977
