28
Coordinates from ORCA-job ./opt_b97-3c_parallel
N          3.11153       -3.30275        0.52829
C          2.55168       -2.33530        0.29076
C          1.88363       -1.10258        0.00511
C          0.77577       -1.27566       -0.74681
C         -0.41364       -1.18972       -0.11420
C         -0.91705       -2.50695        0.13599
N         -1.28229       -3.57159        0.33574
C         -1.12562        0.04979        0.00787
C         -2.53519        0.19716        0.24612
C         -3.48155       -0.85298        0.48342
N         -4.26440       -1.66742        0.65554
C         -2.88389        1.50512        0.05156
N         -4.10036        2.06771        0.13931
C         -1.79386        2.18299       -0.29822
C         -0.69422        1.37801       -0.31411
C          0.63097        1.93441       -0.53669
C          1.94907        1.42044       -0.20348
N          2.99496        2.32480       -0.14982
C          4.07485        1.68062        0.28971
C          3.77452        0.40858        0.53722
C          2.48588        0.17501        0.21660
H          0.83899       -1.48282       -1.81258
H         -4.87335        1.55876        0.56608
H         -4.20028        3.05450        0.36841
H         -1.77941        3.24662       -0.52577
H          0.62632        2.99353       -0.77916
H          4.90772        2.39865        0.33010
H          4.47853       -0.33336        0.90638
