30
Coordinates from ORCA-job ./opt_b97-3c_parallel
N          3.84746        3.83495        0.84969
C          3.41136        2.80225        0.63006
C          2.89981        1.50232        0.33041
C          3.77455        0.43949       -0.03728
C          3.01721       -0.75951       -0.22450
C          3.77587       -1.93571       -0.52536
N          4.39621       -2.87416       -0.72558
C          1.69700       -0.39471       -0.00758
C          0.57136       -1.33183        0.00641
C          0.86120       -2.73040       -0.13707
N          0.78110       -3.41890       -1.04798
C         -0.85073       -0.98628        0.18048
C         -1.80717       -2.01350        0.48436
C         -3.13137       -1.67447        0.53088
N         -3.93913       -2.60315        1.07028
C         -2.99283       -0.37419        0.12088
C         -4.20621        0.38777        0.13664
N         -5.17841        0.98670        0.19162
C         -1.64897        0.11075       -0.06712
C         -1.36234        1.43507       -0.60045
C         -2.28711        2.23487       -1.34613
N         -2.99721        2.89049       -1.95720
C         -0.11996        2.02412       -0.22222
N          0.56754        1.57914        0.77183
C          1.62838        0.98487        0.36754
H          4.85541        0.51794       -0.11262
H         -1.50324       -3.03534        0.69245
H         -4.94913       -2.47215        1.05778
H         -3.74747       -3.59343        0.92906
H          0.11606        3.04545       -0.56041
