26
Coordinates from ORCA-job ./opt_b97-3c_parallel
N         -4.67691        1.77886        0.03090
C         -3.74976        1.11289        0.04376
C         -2.55574        0.31632        0.04347
C         -2.65302       -1.09257        0.12175
N         -3.47264       -1.83046        0.19839
C         -1.43966       -1.69879        0.06895
C         -0.52137       -0.66488        0.02453
C          0.89762       -1.02193        0.01023
C          1.19298       -2.43649        0.01095
N          1.43269       -3.55343       -0.02440
C          2.07635       -0.25439        0.02741
C          3.32885       -0.81168        0.06178
C          4.28392        0.10890        0.11041
N          3.67607        1.28409        0.09660
C          2.34619        1.14038        0.04704
N          1.69500        2.30171       -0.02517
C          0.36141        2.60187       -0.12112
C         -0.87125        1.88991       -0.09397
C         -1.19730        0.55076       -0.00875
H         -4.34704       -1.31081        0.12585
H         -3.70993       -2.81407        0.08116
H         -1.31209       -2.60293       -0.52941
H          3.58465       -1.86894        0.04821
H          5.38163        0.02862        0.14613
H          0.27509        3.69820       -0.17838
H         -1.68584        2.60532       -0.14503
