32
Coordinates from ORCA-job ./opt_b97-3c_parallel
N         -4.56097       -1.72707        1.79049
C         -3.78903       -1.03966        1.30282
C         -2.81192       -0.21467        0.65701
C         -3.16199        1.06173        0.11872
N         -4.08251        1.67179        0.06886
C         -2.16308        1.69710       -0.57333
C         -1.12327        0.80987       -0.41704
C          0.22939        1.12552       -0.77822
C          0.47867        2.28796       -1.58166
N          0.72351        3.21863       -2.19653
C          1.09701        0.86964        0.34075
C          1.92078        1.84873        0.82385
C          3.20944        1.38074        0.77155
N          4.30171        1.54631        0.82555
N          3.21278        0.07685        0.30992
C          1.89700       -0.26815        0.10386
C          1.52579       -1.47016       -0.60273
C          2.58578       -2.25172       -1.18539
N          3.45781       -2.84717       -1.61970
C          0.22097       -2.07624       -0.35177
N          0.06348       -3.15836       -0.53876
C         -0.88025       -1.62390        0.37846
C         -1.50546       -0.31894        0.26816
H         -4.55929        2.54178       -0.16249
H         -4.80950        0.98837        0.27635
H         -1.99589        2.76939       -0.45476
H          1.59338        2.52662        1.60954
H          4.68631        2.44907        0.54612
H          5.10436        0.93119        0.96101
H          0.75541       -3.90913       -0.54276
H         -0.82012       -3.58686       -0.80901
H         -1.55412       -2.36951        0.80729
