31
Coordinates from ORCA-job ./opt_b97-3c_parallel
N          4.70217       -2.45726        1.29741
C          3.97984       -1.66888        0.89467
C          3.04381       -0.70444        0.40702
C          3.50225        0.48931       -0.21782
C          2.38239        1.29729       -0.59349
C          2.71386        2.55020       -1.20231
N          3.01262        3.54980       -1.66827
C          1.24801        0.58828       -0.21377
C         -0.09064        1.00196       -0.27787
C         -0.28419        2.35304       -0.72199
N         -0.46337        3.41268       -1.11168
C         -1.25549        0.18601        0.09388
C         -2.56677        0.72111        0.37282
C         -2.89448        2.06530        0.75164
N         -3.17477        3.12272        1.08303
C         -3.50834       -0.26905        0.33021
N         -4.82760       -0.18665        0.56933
C         -2.90344       -1.39789       -0.01638
C         -1.55943       -1.21054       -0.13546
C         -0.66525       -2.14158       -0.78276
C         -1.13533       -3.18804       -1.63763
N         -1.53682       -4.02833       -2.30218
C          0.63125       -2.26253       -0.18621
C          0.94265       -1.62553        0.97566
C          1.67185       -0.63461        0.40287
H          4.54548        0.75604       -0.36238
H         -5.21480        0.65467        0.99467
H         -5.33093       -0.98737        0.94645
H         -3.40562       -2.35780       -0.12017
H          1.27234       -3.05672       -0.56226
H          1.30202       -2.17869        1.84092
