30
Coordinates from ORCA-job ./opt_b97-3c_parallel
N          3.32728        3.36942       -1.29512
C          3.44039        2.47469       -0.59256
C          2.59736        1.36210       -0.28820
C          3.38469        0.27969        0.22749
C          2.50581       -0.83519        0.46966
C          3.39364       -1.88226        0.87800
N          3.24527       -2.49970        1.82854
C          1.22854       -0.42260        0.15197
C          0.13454       -1.35513       -0.02267
C          0.40794       -2.76798       -0.00069
N          0.58168       -3.89722       -0.00085
C         -1.21612       -1.09299       -0.27747
N         -2.10974       -2.03355       -0.64412
C         -3.38689       -1.53159       -0.50658
N         -4.22809       -2.20425       -0.74045
N         -3.31123       -0.25564        0.00200
C         -2.01060        0.05420        0.07911
C         -1.64318        1.30531        0.71747
C         -2.63680        1.97366        1.52616
N         -3.66936        2.45995        1.58897
C         -0.61231        2.11255        0.25417
N         -0.44087        3.19636        0.43883
C          0.23460        1.71063       -0.84040
C          1.29678        0.92568       -0.29557
H          4.46599        0.29416        0.36011
H         -4.23617       -3.21770       -0.85573
H         -5.20165       -1.92215       -0.62753
H         -1.27495        3.77530        0.53879
H          0.34852        3.84205        0.40931
H          0.64138        2.53265       -1.43296
