28
Coordinates from ORCA-job ./opt_b97-3c_parallel
N         -3.00045        3.26428        0.05717
C         -2.27399        2.38139        0.04224
C         -1.32971        1.27536        0.02160
C         -0.00369        1.75723       -0.00193
C          1.32275        1.27823       -0.02573
C          2.26581        2.38461       -0.04616
N          2.99075        3.26894       -0.05984
C          1.89607       -0.02073       -0.02978
N          3.23704       -0.14166       -0.05549
C          3.44225       -1.21495       -0.04230
N          4.68157       -1.78404       -0.05221
C          2.24470       -1.99233       -0.01581
C          1.31204       -1.39180       -0.01154
C         -0.00107       -1.84508       -0.00537
C         -1.31535       -1.39426        0.00220
C         -2.24489       -1.99821        0.00502
C         -3.44280       -1.22097        0.03476
N         -4.68150       -1.78942        0.04401
N         -3.24137       -0.14666        0.05111
C         -1.90133       -0.02340        0.02442
H         -0.00462        2.85086       -0.00155
H          4.79127       -2.77829        0.10504
H          5.49917       -1.18965        0.03660
H          2.29536       -3.07783       -0.00310
H         -0.00017       -2.93594       -0.00695
H         -2.29608       -3.08416       -0.01057
H         -4.79088       -2.78398       -0.11635
H         -5.49940       -1.19586       -0.04272
