28
Coordinates from ORCA-job ./opt_b97-3c_parallel
N          5.06178       -2.44144       -0.07526
C          4.24490       -1.64341       -0.10153
C          3.21459       -0.64769       -0.09335
C          3.61327        0.65699       -0.14258
C          2.40085        1.29915       -0.09163
C          2.69930        2.69927       -0.14249
N          2.45155        3.79978        0.04308
C          1.31266        0.45616       -0.04156
C          0.01526        1.06429       -0.01142
C         -1.28133        0.45051       -0.04411
C         -2.45534        1.27773       -0.08630
C         -2.48351        2.70944       -0.08324
N         -2.49559        3.85165       -0.04867
C         -3.66338        0.63901       -0.15062
C         -3.22390       -0.65597       -0.09861
C         -4.23963       -1.66648       -0.10452
N         -5.04620       -2.47503       -0.07673
C         -1.80150       -0.86656       -0.05056
C         -1.28156       -2.20702        0.01287
C         -0.01004       -2.72611        0.05823
C          1.31028       -2.16858        0.01917
C          1.79968       -0.87816       -0.04001
H          4.47433        0.99805        0.43146
H          0.02561        2.14845       -0.00833
H         -4.51285        0.97378        0.44157
H         -2.05186       -2.96986        0.02660
H          0.01100       -3.81095        0.10773
H          2.05321       -2.95872        0.03743
