30
Coordinates from ORCA-job ./opt_b97-3c_parallel
N         -4.72966        1.60489       -0.15919
C         -4.12092        0.74548        0.28577
C         -2.85106        0.11196        0.10989
C         -3.00817       -1.28633       -0.16051
C         -1.70161       -1.85991       -0.29421
C         -1.81025       -3.27418       -0.48929
N         -1.53590       -4.21248        0.10159
C         -0.78113       -0.85075       -0.14172
C          0.61123       -1.26054       -0.05386
C          1.77916       -0.43519        0.10342
C          3.04459       -1.04495        0.30491
C          3.99650       -0.08046        0.24800
N          5.32542       -0.22411        0.35473
C          3.36338        1.07071        0.03085
C          2.01096        0.89443       -0.09271
C          1.06100        1.61915       -0.72383
C          0.18685        2.25670        0.08706
N          0.35477        3.33050        0.28687
C         -1.10085        1.73480        0.42388
C         -1.50485        0.38345        0.10397
H         -3.95177       -1.82343       -0.21757
H          0.79836       -2.33024       -0.06681
H          3.19852       -2.11591        0.39527
H          5.94544        0.47686       -0.04587
H          5.74827       -1.13692        0.19565
H          3.86029        2.03307       -0.06879
H          1.19046        1.92043       -1.76119
H         -0.52650        3.82946        0.17834
H          1.07854        4.03659        0.40590
H         -1.85599        2.42309        0.79797
