26
Coordinates from ORCA-job ./opt_b97-3c_parallel
N          3.75534        2.65413        0.00193
C          2.88496        1.91443        0.00341
C          1.81030        0.95471        0.00233
C          0.65057        1.72541       -0.00005
C         -0.76139        1.38992       -0.00117
C         -1.45267        2.65564       -0.00296
N         -2.16475        3.54956       -0.00375
C         -1.51354        0.22339       -0.00101
N         -2.89547        0.33279       -0.00257
C         -3.47066       -0.92473       -0.00235
N         -4.54102       -1.18677       -0.00345
N         -2.44760       -1.85201       -0.00043
C         -1.25187       -1.17198        0.00034
C         -0.08317       -1.99116        0.00231
C          1.29854       -1.62842        0.00365
C          2.23280       -2.70614        0.00551
C          3.49287       -2.21500        0.00657
C          3.43182       -0.89239        0.00567
C          2.12805       -0.45793        0.00368
H          0.81699        2.80970       -0.00082
H         -4.96207       -2.11515       -0.00288
H         -5.31333       -0.52111       -0.00445
H         -0.27416       -3.06171        0.00318
H          1.95304       -3.75541        0.00615
H          4.40475       -2.80804        0.00817
H          4.31719       -0.26002        0.00660
