28
Coordinates from ORCA-job ./opt_b97-3c_parallel
N          4.92639        1.82006        0.07193
C          4.01190        1.13391        0.02676
C          2.83987        0.31119       -0.02159
C          2.93885       -1.10391       -0.08387
N          3.76519       -1.83703       -0.11136
C          1.72595       -1.72170       -0.12878
C          0.80716       -0.69225       -0.07828
C         -0.62675       -1.03931       -0.07797
C         -0.98776       -2.43061       -0.11550
N         -1.31808       -3.52489       -0.13154
C         -1.73952       -0.10213       -0.03389
N         -3.04682       -0.58036       -0.01528
C         -3.99100        0.43124        0.01721
N         -4.97778       -0.06388        0.02989
C         -3.18697        1.52924        0.00703
C         -1.88829        1.24615       -0.01981
N         -1.36477        2.21144       -0.03627
C         -0.27507        2.22410       -0.00514
C          1.09118        1.85652        0.01899
C          1.48577        0.53181       -0.02596
H          3.96220       -2.83369       -0.03613
H          4.65889       -1.35565       -0.01954
H          1.56101       -2.67116        0.38288
H         -5.27682       -1.03915        0.00309
H         -5.83295        0.49060        0.06761
H         -3.61598        2.53630        0.01676
H         -0.18104        3.32117        0.03117
H          1.81169        2.67091        0.06095
