28
Coordinates from ORCA-job ./opt_b97-3c_parallel
N         -3.91916        2.80914        0.00107
C         -2.98244        2.15697        0.00069
C         -1.82908        1.29066        0.00048
C         -0.70866        2.11838        0.00017
C          0.66874        1.91706       -0.00015
C          1.28697        3.21871       -0.00040
N          1.81490        4.23117       -0.00033
C          1.51765        0.74412       -0.00023
N          2.89679        0.96909       -0.00087
C          3.45966       -0.24284       -0.00093
N          4.56043       -0.11603       -0.00142
C          2.57063       -1.28177       -0.00032
C          2.86419       -2.68167        0.00000
N          3.12855       -3.79199       -0.00043
C          1.26646       -0.67022        0.00008
C          0.10138       -1.52474        0.00056
C         -1.25426       -1.26935        0.00088
N         -2.03679       -2.35889        0.00126
C         -3.36190       -1.95180        0.00143
N         -4.27467       -2.57069        0.00137
N         -3.34382       -0.57177        0.00109
C         -2.03066       -0.14389        0.00074
H         -0.97320        3.18317        0.00025
H          5.22368        0.66099       -0.00225
H          5.13854       -0.95950       -0.00189
H          0.34975       -2.58203        0.00067
H         -5.23761       -2.23202        0.00167
H         -4.33887       -3.58899        0.00208
