28
Coordinates from ORCA-job ./opt_b97-3c_parallel
N          5.28107       -0.92253       -0.42323
C          4.24119       -0.44984       -0.39860
C          2.94783        0.15649       -0.32273
C          2.78227        1.51239       -0.33007
C          1.45955        1.67665        0.03739
C          1.36359        3.10808        0.06683
N          0.91425        3.89371       -0.63202
C          0.77570        0.48207        0.18819
C         -0.65409        0.41125        0.50122
C         -1.29929        1.61974        0.92423
N         -1.80492        2.57469        1.29974
C         -1.51088       -0.71973        0.12520
C         -2.88071       -0.59494       -0.03935
C         -4.02108        0.27228        0.02551
N         -4.54607        1.09034       -0.57651
C         -3.35249       -1.78761       -0.53343
C         -2.36402       -2.65099       -0.71352
C         -1.22239       -2.06588       -0.28116
C         -0.13987       -2.84146        0.05410
C          0.66167       -2.39380        1.04802
C          1.69373       -1.91930        0.31669
C          1.74133       -0.53531       -0.03336
H          3.25202        2.10599       -1.11605
H         -4.39348       -2.01487       -0.76521
H         -2.46791       -3.66770       -1.08555
H         -0.10775       -3.89044       -0.22927
H          0.84106       -3.00029        1.93281
H          2.58704       -2.52014        0.17226
