30
Coordinates from ORCA-job ./opt_b97-3c_parallel
N          4.87619        1.72568       -0.44700
C          4.23309        0.93733       -0.96839
C          3.10057        0.16889       -0.54296
C          3.14704       -1.18890       -0.30499
N          3.91772       -1.97992       -0.35842
C          1.98448       -1.72962        0.19801
C          1.12714       -0.65765        0.27196
C         -0.30156       -0.75159        0.61212
C         -0.63526       -2.07155        1.07250
N         -1.07734       -2.76325        1.86766
C         -1.38668        0.07975        0.27910
C         -2.69425       -0.34720        0.18812
C         -3.66054       -1.40146        0.31055
N         -4.44208       -1.99084       -0.28053
C         -3.49027        0.73826       -0.32771
N         -4.38004        1.29477       -0.68615
N         -2.72110        1.81938       -0.52550
C         -1.44696        1.45614       -0.13420
C         -0.52130        2.45530        0.03482
C          0.45147        2.24139        0.94918
C          1.44037        1.89504        0.09730
C          1.78750        0.53410       -0.14861
H          4.05912       -2.92464       -0.00348
H          4.82447       -1.51626       -0.31267
H          1.63206       -2.70356       -0.14687
H         -5.03390        2.06853       -0.56687
H         -4.95093        0.47267       -0.89199
H         -0.73791        3.47132       -0.28744
H          0.63482        2.95623        1.74876
H          2.13918        2.66455       -0.22161
