26
Coordinates from ORCA-job ./opt_b97-3c_parallel
N          2.98897        3.48127       -0.05913
C          2.20571        2.64947       -0.07689
C          1.22513        1.58939       -0.08856
C         -0.10835        2.04357       -0.16182
C         -1.36962        1.43323       -0.00448
C         -2.46639        2.37339        0.07222
N         -3.32205        3.12918        0.12822
C         -1.68595        0.06317        0.13139
N         -2.91366       -0.40769        0.40956
C         -2.51638       -1.43145        0.21027
N         -3.73672       -2.04839        0.23913
N         -1.71088       -2.16115       -0.04873
C         -0.88185       -1.11594       -0.18698
N          0.05189       -0.98076       -1.13827
C          1.07993       -1.02202       -0.28089
N          1.85162       -2.10173       -0.07912
C          2.86310       -1.72196        0.11412
N          4.10386       -2.26278        0.28484
C          2.67111       -0.30630        0.16602
C          1.73772        0.27970        0.03310
H         -0.17711        3.12755       -0.26857
H         -4.58260       -1.49018        0.28215
H         -3.81750       -3.01006       -0.07079
H          4.91982       -1.66058        0.29010
H          4.24557       -3.25028        0.10232
H          3.52002        0.34469        0.35308
