29
Coordinates from ORCA-job ./opt_b97-3c_parallel
N         -2.95129        3.73398        0.02013
C         -2.22136        2.85474        0.01998
C         -1.28697        1.74470        0.00845
C          0.04026        2.19743        0.00915
C          1.33780        1.66077       -0.00564
C          2.32448        2.73101       -0.00959
N          3.08384        3.58584       -0.01183
C          1.84508        0.33406       -0.01625
N          3.17800        0.18214       -0.03930
C          3.62133       -0.81078       -0.01312
N          4.72869       -1.60612        0.01116
C          2.30217       -1.36334        0.00513
C          1.22798       -1.03400       -0.00149
C         -0.09830       -1.51133       -0.00572
C         -0.10231       -2.96952       -0.00430
N         -0.08469       -4.11276       -0.00247
C         -1.40277       -0.96392       -0.01251
N         -2.47724       -1.77245       -0.01779
C         -3.45666       -1.29711       -0.02340
N         -4.80351       -1.50595       -0.03906
C         -2.90392        0.02122       -0.01450
C         -1.87203        0.45780       -0.00671
H          0.07138        3.29090        0.01951
H          4.64400       -2.61629        0.00715
H          5.65418       -1.19219       -0.01669
H          2.28064       -2.44692        0.03975
H         -5.44973       -0.72746        0.02674
H         -5.17049       -2.45002        0.01369
H         -3.63467        0.82339       -0.01943
