25
Coordinates from ORCA-job ./opt_b97-3c_parallel
N         -4.11858       -2.51278       -0.00044
C         -3.16111       -1.88944       -0.00014
C         -1.92949       -1.11711        0.00008
C         -0.80430       -1.95582        0.00044
C          0.59407       -1.83092       -0.00006
C          1.23713       -3.13323       -0.00005
N          1.72583       -4.16683       -0.00015
C          1.46301       -0.71374       -0.00012
N          2.79908       -0.89027       -0.00035
C          3.04793        0.18817        0.00033
N          4.40805        0.30763        0.00003
N          2.59705        1.19874        0.00118
C          1.32227        0.75606        0.00042
C          0.21351        1.62724        0.00033
C          0.61250        3.03012        0.00093
N          0.92809        4.12889       -0.00969
C         -1.18807        1.46739       -0.00036
N         -2.03743        2.51452       -0.00042
C         -2.94706        1.88399       -0.00076
N         -3.31075        0.83859       -0.00079
C         -2.08117        0.29012       -0.00046
H         -1.10241       -3.00804        0.00084
H          4.99898       -0.51659       -0.00046
H          4.84568        1.22250        0.00026
H         -3.81908        2.52346       -0.00076
