30
Coordinates from ORCA-job ./opt_b97-3c_parallel
N         -0.60878        4.66427       -1.12359
C         -0.41065        3.59773       -0.76460
C         -0.14942        2.27739       -0.27653
C         -0.79127        1.88111        0.95175
C         -1.82598        0.90489        0.73546
C         -3.12849        1.13856        1.28093
N         -4.15589        1.34982        1.73375
C         -1.52962       -0.25514       -0.07218
C         -2.47980       -1.12483       -0.56153
C         -3.89749       -1.27429       -0.70403
N         -4.78085       -0.90626       -1.32899
C         -1.92614       -2.26673       -1.09622
C         -0.61597       -2.14703       -0.72206
C          0.27773       -3.23786       -0.96567
N          0.98962       -4.10226       -1.19209
C         -0.25197       -0.85517       -0.22613
C          0.87920       -0.60801        0.64546
C          1.48635       -1.66767        1.39558
N          1.93583       -2.50799        2.02538
C          1.63129        0.54977        0.20730
C          3.06138        0.64637        0.07873
C          4.04987       -0.33753        0.39561
N          4.85954       -1.11354        0.61527
C          3.35109        1.75461       -0.66042
C          2.23013        2.36282       -1.03020
C          1.16144        1.70450       -0.49497
H         -1.15879        2.70987        1.55280
H         -2.42457       -3.23563       -1.04553
H          4.35261        2.07058       -0.94440
H          2.18427        3.25655       -1.64897
