33
Coordinates from ORCA-job ./opt_b97-3c_parallel
N         -0.96748        4.59738       -0.09348
C         -0.82082        3.47275        0.04666
C         -0.66628        2.06048        0.25414
C          0.37997        1.77265        1.06674
C          1.39362        1.39809        0.24539
C          2.30530        2.47602       -0.01269
N          3.00589        3.35876       -0.20219
C          1.63046        0.01366       -0.05630
C          2.87661       -0.51129       -0.51691
C          4.05904        0.14634       -0.98813
N          5.02196        0.63724       -1.35943
C          2.74786       -1.90677       -0.24209
N          3.44737       -2.75776       -0.32904
C          1.56203       -2.29022        0.32768
C          0.85376       -1.11147        0.38688
C         -0.52715       -1.08364        0.87737
C         -0.95775       -2.25735        1.58417
N         -1.27511       -3.18471        2.17334
C         -1.55821       -0.28916        0.19611
C         -2.79984       -0.80587       -0.08123
C         -3.61872       -1.98552       -0.02183
N         -3.61801       -2.90313       -0.70414
C         -3.46062        0.30484       -0.70329
N         -4.44744        0.52534       -1.15948
C         -2.76953        1.47902       -0.85894
C         -1.61012        1.09090       -0.23106
H          0.55739        2.30847        1.99813
H          3.50552       -3.73125       -0.03445
H          4.39906       -2.45721       -0.53527
H          1.07173       -3.21721        0.02840
H         -5.17477        1.23214       -1.26438
H         -4.92259       -0.37469       -1.11103
H         -3.22132        2.44855       -0.63248
