28
Coordinates from ORCA-job ./opt_b97-3c_parallel
N         -0.00651        4.50893        0.64375
C         -0.02327        3.41861        0.30046
C          0.39165        2.05948        0.12318
C          1.74636        2.12400       -0.36558
C          2.23697        0.84699       -0.42209
C          3.55468        0.53706       -0.92272
N          4.59821        0.31037       -1.32923
C          1.16895        0.04408       -0.01847
C          1.21694       -1.36524        0.19622
C          2.52993       -1.95440        0.39835
N          3.55254       -2.43462        0.57423
C          0.12121       -2.28216        0.23713
N          0.40795       -3.60711        0.47596
C         -1.24372       -2.12547       -0.07976
C         -2.03657       -0.98209       -0.25787
N         -3.32673       -1.04540       -0.61395
C         -3.39397        0.02818       -0.30721
N         -4.74828        0.12855       -0.47260
N         -2.99828        1.00125        0.07993
C         -1.81372        0.38544        0.19480
N         -0.89028        0.59478        1.14514
C          0.03954        0.99581        0.26666
H          2.37701        2.95775       -0.67119
H         -0.35457       -4.25364        0.64672
H          1.33040       -3.85597        0.81923
H         -1.79452       -3.05676       -0.21058
H         -5.29638       -0.70547       -0.65337
H         -5.23350        0.95201       -0.13520
