28
Coordinates from ORCA-job ./opt_b97-3c_parallel
N          2.69765       -4.00350       -0.40501
C          2.59017       -2.87466       -0.26797
C          2.41049       -1.46636       -0.10891
C          3.51515       -0.65345        0.29309
C          3.06852        0.69727        0.41895
C          3.96131        1.74981        0.78514
N          4.64270        2.62012        1.07223
C          1.73846        0.73371        0.07904
N          1.03350        1.88454       -0.02683
C         -0.14179        1.85386       -0.74266
N         -0.19470        2.96047       -0.78039
N         -0.92602        1.80064        0.28687
C         -1.56284        0.67774        0.15173
C         -2.99570        0.59656        0.27363
C         -3.81997        1.72844        0.56621
N         -4.43898        2.66118        0.79213
C         -3.60481       -0.61991        0.07137
C         -2.47409       -1.33229       -0.22607
C         -2.89454       -2.66836       -0.51925
N         -2.37804       -3.68095       -0.40427
C         -1.25472       -0.60415       -0.16816
C          0.01479       -1.24624       -0.41949
C          1.31904       -0.63105       -0.19891
H          4.52612       -1.00533        0.47841
H          0.58479        3.56974       -1.03022
H         -1.03627        3.51552       -0.93753
H         -4.34033       -0.99197        0.78493
H         -0.01188       -2.30983       -0.63610
