30
Coordinates from ORCA-job ./opt_b97-3c_parallel
N          4.61847        1.37649       -1.04263
C          4.44340        0.39872       -0.47577
C          3.19356       -0.26153       -0.22619
C          3.03829       -1.61866       -0.03019
N          3.73024       -2.47966       -0.02304
C          1.76375       -2.01977        0.30047
C          1.04533       -0.85668        0.20309
C         -0.40248       -0.77607        0.34943
C         -0.99082       -1.90112        1.02842
N         -1.38385       -1.59079        2.05708
C         -1.31911        0.09813       -0.18973
C         -2.57667       -0.19494       -0.66922
C         -3.08101       -1.31035       -1.40758
N         -3.51246       -2.20654       -1.96597
C         -3.50203        0.74335       -0.30079
N         -4.56614        1.06341       -0.33545
N         -2.91997        1.75793        0.32424
C         -1.59639        1.34331        0.31836
N         -0.81010        2.43472        0.62361
C          0.51817        2.16620        0.36641
N          1.00703        3.14998        0.51475
N          1.74253        1.62235        0.05796
C          1.88486        0.28052       -0.07786
H          4.56252       -2.36306       -0.60195
H          3.82488       -3.39499        0.41766
H          1.35340       -2.96248       -0.06735
H         -5.11262        1.80360       -0.78439
H         -5.24888        0.32237       -0.15212
H          1.83682        3.53009        0.04983
H          0.82543        3.80637        1.27700
