28
Coordinates from ORCA-job ./opt_b97-3c_parallel
N         -2.95483       -3.24757        0.36122
C         -2.37583       -2.28425        0.15782
C         -1.61291       -1.09610       -0.07553
C         -0.46479       -1.43866       -0.72166
C          0.67657       -1.59860        0.00318
C          1.07042       -2.94812        0.27324
N          1.43032       -4.00896        0.49204
C          1.45960       -0.46440        0.41378
N          2.57676       -0.55951        1.06155
C          3.45707       -0.00541        0.29366
N          4.56014       -0.04566        0.25601
C          2.42279        0.81971       -0.03761
C          0.92617        0.78457       -0.05349
C         -0.08681        1.75325       -0.40243
C          0.40225        3.07833       -0.62751
N          0.83802        4.12132       -0.79159
C         -1.48699        1.48802       -0.13006
C         -2.45518        2.44024       -0.01935
C         -3.57445        1.83678        0.36178
C         -3.41855        0.52549        0.49467
C         -2.13377        0.23116        0.15601
H         -0.48465       -1.68676       -1.78135
H          5.15862       -0.87218        0.27606
H          5.19117        0.75639        0.26072
H          2.65986        1.81228       -0.41644
H         -2.33996        3.50800       -0.19511
H         -4.51270        2.35740        0.54190
H         -4.19175       -0.18114        0.78942
