32
Coordinates from ORCA-job ./opt_b97-3c_parallel
N          2.85437        3.23568        1.88685
C          2.23805        2.49412        1.27467
C          1.50730        1.53960        0.48795
C          0.80667        2.05706       -0.66115
C         -0.55524        1.82573       -0.74121
C         -1.18345        2.99309       -1.29123
N         -1.56626        2.96694       -2.36792
C         -1.13965        0.66869       -0.11920
C         -2.52177        0.57490        0.22881
C         -3.55261        1.57174        0.28456
N         -3.51494        2.36005        1.11215
C         -2.96322       -0.67567        0.59904
N         -4.18496       -1.22473        0.74956
C         -1.80322       -1.37592        0.33433
C         -1.73707       -2.77999        0.62473
N         -1.63907       -3.89096        0.87278
C         -0.64916       -0.59202       -0.03099
C          0.44255       -1.12560       -0.82616
C          0.27332       -2.31097       -1.61579
N          0.18583       -3.25822       -2.24788
C          1.79133       -0.74245       -0.44470
C          2.86231       -1.58206       -0.59646
C          3.75618       -1.14603        0.34600
N          4.75164       -1.39811        0.75417
N          3.35823        0.05898        0.89396
C          2.15929        0.31310        0.35007
H          1.17461        3.02592       -1.00136
H         -4.29157       -2.15724        1.14651
H         -4.97470       -0.65636        1.05306
H          2.74523       -2.64892       -0.78065
H          5.19266       -2.31771        0.71261
H          5.43992       -0.77945        1.18429
