25
Coordinates from ORCA-job ./opt_b97-3c_parallel
N         -0.64542        3.71446       -0.08750
C         -0.33771        2.61413       -0.10397
C         -0.01602        1.21212       -0.12478
C          1.35982        0.93781       -0.15874
N          2.30772        1.87191       -0.28801
C          3.49945        1.21954       -0.04225
N          3.40794       -0.02470        0.31672
C          2.14310       -0.23506        0.16740
C          1.84871       -1.55753        0.47646
C          0.69346       -2.26537        0.01410
N          0.48084       -3.34214        0.13343
N         -0.13157       -1.81335       -0.86313
C         -1.05358       -1.04123       -0.41971
C         -2.39570       -1.50318       -0.30630
C         -3.19196       -0.37996        0.08730
N         -4.19367        0.01950        0.32792
N         -2.40034        0.69799        0.20643
C         -1.10810        0.26811       -0.06617
H          4.45884        1.75857       -0.07886
H          2.60060       -2.18710        0.95145
H          1.46676       -3.56232       -0.00153
H         -0.03653       -4.16309       -0.17630
H         -2.75409       -2.50627       -0.51851
H         -4.96871       -0.52931        0.70110
H         -4.56704        0.95447        0.16234
