32
Coordinates from ORCA-job ./opt_b97-3c_parallel
N         -1.43728        4.50202        0.35427
C         -1.59337        3.37968        0.20483
C         -1.81558        1.98279       -0.01254
C         -2.96395        1.58758       -0.63937
C         -2.85636        0.22247       -0.53939
C         -4.07426       -0.24385       -1.13488
N         -4.35167       -0.89189       -2.03480
C         -1.65772       -0.17735        0.01237
C         -1.31237       -1.54809        0.34770
C         -2.46173       -2.41405        0.53401
N         -3.35882       -3.09776        0.72043
C          0.01822       -2.05412        0.37368
N          0.03951       -3.14794        0.61180
C          1.28750       -1.53988       -0.01647
C          2.33509       -2.46036       -0.41816
N          3.13287       -3.20849       -0.75020
C          1.68504       -0.13807        0.01148
C          2.90716        0.35055       -0.37208
C          4.17428        0.02536       -0.96332
N          5.26640       -0.20974       -0.72314
C          2.79720        1.72190        0.03701
N          3.41796        2.64103        0.01268
C          1.64083        2.12871        0.65759
C          0.96151        0.93230        0.60383
N         -0.02699        0.99641        1.07404
C         -0.93696        0.95348        0.45687
H         -3.89942        2.11259       -0.44012
H         -0.73040       -3.79127        0.78992
H          0.89565       -3.68055        0.75978
H          4.32171        2.21765       -0.19456
H          3.60379        3.43925        0.61750
H          1.65140        2.72005        1.57841
