33
Coordinates from ORCA-job ./opt_b97-3c_parallel
N         -2.01659        4.35600        1.09164
C         -1.90950        3.24467        0.84928
C         -1.78007        1.84455        0.58622
C         -2.85606        0.99043        0.98384
C         -2.57182       -0.34905        0.58081
C         -3.56152       -1.36475        0.76205
N         -4.34641       -2.17540        0.94025
C         -1.29653       -0.32482        0.05991
C         -0.83912       -1.25780       -0.94459
C         -1.85597       -1.54174       -1.92955
N         -2.64991       -2.08190       -2.54919
C          0.28951       -2.00880       -0.64278
N          0.34532       -2.99451       -1.15196
C          1.10315       -1.70058        0.51765
C          1.71730       -2.76236        1.26984
N          2.21505       -3.61890        1.83998
C          1.70873       -0.37790        0.52942
C          3.03293       -0.20511        1.04529
C          3.62947        0.86332        0.45185
N          4.86763        1.32327        0.67995
C          2.79173        1.35613       -0.45404
C          1.59281        0.69743       -0.41882
C          0.34425        1.41450       -0.62083
C          0.38039        2.73510       -1.18235
N          0.42062        3.77084       -1.66414
C         -0.82065        1.02241        0.02389
H         -3.78383        1.32336        1.44090
H         -0.39578       -3.50563       -1.62977
H          1.15362       -3.61389       -1.11610
H          3.55925       -0.95693        1.62488
H          5.37004        1.04529        1.52112
H          5.09688        2.29617        0.48458
H          3.02479        2.19754       -1.10396
