28
Coordinates from ORCA-job ./opt_b97-3c_parallel
N         -4.48868        2.78468       -0.48458
C         -3.74993        1.91300       -0.49300
C         -2.79989        0.84571       -0.52262
C         -3.09133       -0.37665       -1.06342
C         -2.01268       -1.13687       -0.66921
C         -2.29572       -2.47722       -1.08811
N         -2.72681       -3.50399       -0.83041
C         -1.02103       -0.37881       -0.08624
C          0.18592       -0.90363        0.52515
C          0.13002       -2.24874        1.01696
N          0.04542       -3.30778        1.43771
C          1.46241       -0.26728        0.15300
C          2.70614       -0.98169        0.08063
C          3.08438       -2.29562        0.51510
N          3.42406       -3.33709        0.84182
C          3.59496       -0.12066       -0.62907
N          2.63357        0.43133       -0.70253
C          1.74398        1.03150       -0.42556
C          0.83126        2.13561       -0.40925
C          1.10264        3.32926       -1.14810
N          1.33360        4.29644       -1.71171
C          0.09841        2.47743        0.68975
C         -1.06515        1.89921        0.93175
C         -1.52205        0.92799        0.09882
H         -4.11159       -0.76047       -1.03163
H          4.63845       -0.32558       -0.91194
H          0.47021        3.23642        1.37577
H         -1.64426        2.18075        1.80874
