26
Coordinates from ORCA-job ./opt_b97-3c_parallel
N         -2.96369        3.12139       -0.00051
C         -2.22276        2.25092        0.00008
C         -1.31895        1.12916        0.00019
C         -0.04499        1.68718       -0.00124
C          1.29585        1.13328       -0.00181
C          2.21956        2.23642       -0.00351
N          2.98213        3.08821       -0.00295
C          1.88731       -0.19020       -0.00105
C          3.23823       -0.41790       -0.00155
C          3.45053       -1.72505       -0.00056
C          2.31529       -2.40385        0.00058
C          1.30020       -1.49518        0.00054
C          0.02253       -2.00036        0.00162
C         -1.23238       -1.44681        0.00199
C         -2.31479       -2.37760        0.00329
C         -3.49248       -1.72638        0.00340
C         -3.20990       -0.43640        0.00229
C         -1.84904       -0.21379        0.00150
H         -0.02067        2.78133       -0.00223
H          4.02644        0.33169       -0.00267
H          4.43703       -2.18248       -0.00105
H          2.22574       -3.48807        0.00086
H          0.00131       -3.08764        0.00246
H         -2.20888       -3.45842        0.00392
H         -4.48336       -2.17441        0.00379
H         -3.97848        0.33285        0.00159
