29
Coordinates from ORCA-job ./opt_b97-3c_parallel
N          4.53344        0.81160        0.90306
C          3.41131        0.88897        0.70181
C          2.00056        0.99477        0.48955
C          1.35328        2.22215        0.81945
C         -0.01980        2.16006        0.42857
C         -0.81342        3.33325        0.62917
N         -1.42120        4.28403        0.80868
C         -0.22802        0.88269       -0.06002
C         -1.38149        0.41937       -0.67589
C         -2.25881        1.37628       -1.29210
N         -2.93559        2.13548       -1.81324
C         -1.90648       -0.88323       -0.32195
N         -3.27774       -1.08681       -0.33888
C         -3.54449       -2.12149        0.45238
C         -2.41941       -2.54874        1.01779
C         -1.35924       -1.84164        0.56930
C         -0.20305       -2.55761        0.32320
C          0.82497       -2.19815       -0.53765
N          1.28552       -3.16183       -0.84540
C          1.29037       -0.93722       -0.88557
C          2.46351       -0.84299       -1.71873
N          3.43277       -0.93261       -2.31803
C          1.01045        0.16508        0.00753
H          1.84746        3.09870        1.22913
H         -4.62275       -2.34128        0.46135
H         -2.36537       -3.37360        1.72506
H         -0.22775       -3.57529        0.72693
H          0.95421       -4.07116       -1.16258
H          2.25789       -3.08654       -1.14205
