25
Coordinates from ORCA-job ./opt_b97-3c_parallel
N          3.77024       -2.63406       -0.00120
C          2.90353       -1.89094        0.00035
C          1.83715       -0.92371       -0.00012
C          0.58262       -1.51988        0.00051
C         -0.80138       -1.42970        0.00187
C         -1.51912       -2.67917        0.00293
N         -2.23450       -3.56920        0.00221
C         -1.59349       -0.28249        0.00188
N         -2.97513       -0.31388        0.00285
C         -3.43305        0.99315        0.00235
N         -4.51946        1.19448        0.00259
N         -2.32669        1.83277        0.00150
C         -1.17715        1.07247        0.00134
N          0.05129        1.44987        0.00032
C          1.33070        1.57395       -0.00038
C          2.11829        2.68596       -0.00125
C          3.38584        2.29510       -0.00337
C          3.49710        0.97425       -0.00161
C          2.23287        0.47219       -0.00068
H          0.76894       -2.59977       -0.00029
H         -4.97041        2.11115        0.00220
H         -5.28459        0.51716        0.00303
H          1.77484        3.71843       -0.00171
H          4.23677        2.97614       -0.00314
H          4.42901        0.41186       -0.00238
