26
Coordinates from ORCA-job ./opt_b97-3c_parallel
N          3.80869       -2.02995       -1.39660
C          3.58159       -1.65373       -0.34140
C          2.61973       -0.62099       -0.07904
C          1.24664       -0.92468        0.22663
N          0.75823       -2.23295        0.30054
C         -0.54875       -2.33388        0.56267
N         -1.78450       -2.04130        0.81206
C         -2.46661       -0.99886        0.45179
C         -3.77895       -1.04853        0.08747
C         -4.01207        0.27088       -0.21176
N         -4.88204        0.84335       -0.57266
N         -2.92393        1.03676       -0.03550
C         -1.89886        0.30535        0.38766
N         -0.65891        0.53687        0.68627
C          0.59269        0.35150        0.40851
C          1.52093        1.34658        0.23381
C          1.30219        2.75949        0.32923
N          1.08240        3.87708        0.41630
C          2.78819        0.74788       -0.07458
N          3.73724        1.28058       -0.27941
H         -0.44196       -3.43011        0.53628
H         -4.15119       -1.84267       -0.55700
H         -5.66580        0.31658       -0.95713
H         -5.18132        1.81711       -0.53698
H          4.06311        2.24042       -0.16748
H          4.48208        0.77992       -0.76473
