31
Coordinates from ORCA-job ./opt_b97-3c_parallel
N         -4.90394        2.56183        1.34443
C         -4.16068        1.78128        0.96440
C         -3.26266        0.77849        0.48730
C         -3.64395       -0.59564        0.43337
C         -2.54785       -1.34058       -0.09666
C         -2.63013       -2.75464       -0.27843
N         -2.72911       -3.88472       -0.41637
C         -1.53516       -0.45059       -0.35754
N         -0.35742       -0.65856       -0.85052
C          0.86576       -0.65478       -0.42945
C          1.65005       -1.75768       -0.20935
C          1.28550       -3.13395       -0.39589
N          1.01323       -4.23694       -0.51847
C          2.93358       -1.31504        0.25647
N          3.74930       -2.02672        0.50307
C          2.90320        0.06505        0.31812
C          4.07342        0.76906        0.76761
N          4.68550        1.18701        1.63738
C          1.60524        0.54036       -0.11121
C          1.15893        1.84526       -0.19639
C          1.76620        2.74752        0.04451
N          2.52937        3.59260       -0.07505
C         -0.07033        2.35446       -0.56165
N         -0.69772        2.95046       -1.26178
N         -1.22572        1.91287       -0.15729
C         -1.97878        0.86639        0.00870
H         -4.60430       -1.00251        0.73514
H          4.61578       -1.68221        0.91414
H          3.87634       -3.02417        0.33810
H         -1.46488        3.61410       -1.16758
H          0.13071        3.49391       -1.49684
