27
Coordinates from ORCA-job ./opt_b97-3c_parallel
N         -4.86195       -1.58442        0.39248
C         -3.90405       -0.97092        0.28079
C         -2.68486       -0.23001        0.16899
C         -2.74121        1.18302        0.27989
C         -1.43567        1.72912        0.12887
C         -1.37724        3.15643        0.22981
N         -1.36397        4.29522        0.32559
C         -0.57326        0.65400       -0.04914
C          0.85454        0.95107       -0.25082
C          1.40529        2.26146       -0.49061
N          1.56944        2.92068       -1.41082
C          1.93797       -0.00372       -0.10400
N          3.20929        0.35538        0.17209
C          4.19080       -0.42238        0.59347
C          3.39169       -1.47854        0.59724
C          2.14431       -1.28990        0.21552
N          1.26415       -2.18858        0.02845
C          0.12268       -2.62908       -0.33494
N          0.41046       -3.67761       -0.50877
C         -1.12066       -1.93449       -0.26501
C         -1.36734       -0.58278       -0.03057
H         -3.64723        1.75943        0.44561
H          5.18056        0.02744        0.76223
H          3.76202       -2.46396        0.87112
H          1.20153       -4.22226       -0.84646
H         -0.39963       -3.96344       -1.05495
H         -1.96616       -2.60541       -0.38532
