27
Coordinates from ORCA-job ./opt_b97-3c_parallel
N         -2.17149        3.82575        1.19688
C         -1.74985        2.83999        0.80142
C         -1.20374        1.62243        0.26822
C         -0.19832        1.79127       -0.74706
C          0.96782        1.04966       -0.74823
C          2.00861        1.85839       -1.31430
N          2.93387        2.39027       -1.72291
C          1.19994       -0.10461        0.07431
C          2.53294       -0.38047        0.49172
C          3.93131       -0.20325        0.72528
N          4.64247        0.61759        1.08240
C          2.47300       -1.74659        0.91646
N          1.25507       -2.26771        0.68993
C          0.45716       -1.24313        0.20593
C         -0.75770       -1.58349       -0.49889
C         -0.97289       -2.94589       -0.90478
N         -1.16182       -4.01699       -1.25627
C         -1.90295       -0.69906       -0.41510
C         -3.18009       -1.17248       -0.54116
C         -3.96907       -0.43420        0.21153
C         -3.27949        0.53740        0.77489
C         -1.98304        0.46836        0.32716
H         -0.16220        2.79850       -1.16364
H          2.87128       -2.69563        1.30654
H         -3.49876       -2.03568       -1.12181
H         -5.03370       -0.60524        0.35294
H         -3.69898        1.26464        1.46702
