28
Coordinates from ORCA-job ./opt_b97-3c_parallel
N          4.41149       -1.95297       -0.47631
C          3.59520       -1.16307       -0.35440
C          2.54863       -0.20363       -0.18477
C          2.83244        1.11231        0.04496
C          1.57584        1.67431        0.08572
C          1.92092        3.06139        0.21876
N          1.98046        4.03541       -0.37720
C          0.55681        0.75031       -0.03609
C         -0.85759        1.13780       -0.00960
C         -1.20283        2.51617        0.18821
N         -1.50462        3.60265        0.37418
C         -1.94463        0.18027       -0.16274
C         -3.31514        0.58058       -0.17884
C         -4.06834       -0.53421       -0.32768
C         -3.25376       -1.57943       -0.39128
C         -1.94402       -1.18744       -0.27724
N         -1.20419       -2.24563       -0.29318
C         -0.14057       -2.37828        0.43149
N         -0.22920       -3.25767        1.08828
C          0.66098       -1.77346       -0.48854
C          1.16344       -0.53090       -0.23558
H          3.61420        1.37780        0.75855
H         -3.67790        1.59930       -0.09010
H         -5.15287       -0.56523       -0.39722
H         -3.59684       -2.60498       -0.52530
H          0.49921       -3.94038        1.28561
H         -1.09560       -3.77778        0.96069
H          1.11956       -2.37777       -1.27107
