28
Coordinates from ORCA-job ./opt_b97-3c_parallel
N         -3.74430        3.04358        1.12304
C         -2.94504        2.31025        0.76212
C         -1.93165        1.41588        0.27332
C         -0.93345        2.04699       -0.55596
C          0.39032        1.66382       -0.68517
C          1.08837        2.81310       -1.18619
N          1.68970        3.42287       -1.94247
C          0.99192        0.58569        0.04601
C          2.37831        0.63073        0.39197
C          3.53105        1.47779        0.47737
N          3.80894        2.42151        1.05973
C          2.97455       -0.55027        0.75623
C          1.95921       -1.36739        0.32756
C          2.26100       -2.76442        0.40664
N          2.52318       -3.87300        0.50235
C          0.70992       -0.73689       -0.02210
C         -0.34923       -1.38189       -0.76360
C         -0.13610       -2.62702       -1.44858
N          0.03176       -3.59876       -2.02759
C         -1.69258       -1.02877       -0.35805
N         -2.66046       -2.01511       -0.43253
C         -3.72638       -1.60527        0.23311
C         -3.43006       -0.40751        0.71999
C         -2.20768        0.04563        0.31732
H         -1.21443        3.05859       -0.85505
H          3.40561       -0.68946        1.74848
H         -4.51267       -2.37497        0.22730
H         -4.11927        0.12897        1.36846
