26
Coordinates from ORCA-job ./opt_b97-3c_parallel
N         -1.59950       -4.13397        1.12428
C         -1.74480       -3.05137        0.78862
C         -1.55393       -1.73435        0.26362
C         -2.77256       -1.15615       -0.22835
C         -2.55571        0.24997       -0.42164
C         -3.54798        0.87831       -1.23776
N         -4.44932        1.44302       -1.65559
C         -1.52270        0.44040       -0.08640
N         -0.82512        1.58801        0.04100
C          0.12916        2.12124        0.18916
N         -0.09066        3.21084        0.97638
N          1.17064        1.79523        0.03169
C          2.08627        0.81132       -0.07374
N          3.34211        0.96788       -0.51678
C          3.65979       -0.07752       -0.38651
N          4.93766       -0.45951       -0.67830
C          2.70168       -1.02282        0.09952
C          1.70653       -0.59496        0.29872
N          0.43132       -0.88808        0.61113
C         -0.88077       -0.86198        0.30484
H         -3.71081       -1.67995       -0.40415
H         -1.03466        3.55300        1.11306
H          0.68204        3.82294        1.21240
H          5.58980        0.20598       -1.07880
H          5.22158       -1.42867       -0.58939
H          2.95372       -2.06689        0.25674
