27
Coordinates from ORCA-job ./opt_b97-3c_parallel
N         -3.61687       -3.30591       -0.00219
C         -3.42469       -2.17916       -0.00387
C         -2.57711       -1.02490       -0.00195
C         -3.39242        0.14998       -0.00047
C         -2.51307        1.27949        0.00124
C         -3.32883        2.45615        0.00268
N         -3.30673        3.59908        0.00314
C         -1.21728        0.80982        0.00086
C         -0.17665        1.80475        0.00244
C          1.21740        1.69178        0.00236
N          1.44625        2.78720        0.00395
C          2.17208        0.66513        0.00093
C          3.53093        1.19255        0.00168
N          4.58301        1.64446        0.00245
C          2.16221       -0.73440       -0.00091
N          3.32165       -1.42812       -0.00186
C          3.04623       -2.78106       -0.00346
N          1.67847       -2.91313       -0.00352
C          1.14331       -1.64993       -0.00194
C         -0.28856       -1.67061       -0.00189
C         -1.26180       -0.61998       -0.00104
H         -4.48035        0.17709       -0.00035
H         -0.66846        2.78973        0.00378
H          0.94009        3.67145        0.00495
H          2.43560        3.03042        0.00473
H          3.83671       -3.54659       -0.00449
H         -0.71305       -2.67192       -0.00317
