32
Coordinates from ORCA-job ./opt_b97-3c_parallel
N          5.16571        1.07742       -0.60769
C          4.07323        0.80259       -0.40630
C          2.70264        0.43618       -0.19027
C          2.17657       -0.84021       -0.31432
N          2.70303       -1.78159       -0.56666
C          0.78571       -0.70710       -0.01041
C         -0.09211       -1.82476        0.24082
N          0.12830       -2.31974        1.20773
C         -1.21129       -2.64977       -0.12668
C         -2.51719       -2.04821       -0.27447
C         -2.79641       -0.64476       -0.04415
C         -4.04172       -0.18413       -0.34900
N         -4.28004        1.02634       -0.79851
C         -3.01734        0.91782       -0.26457
C         -1.94863        0.34920        0.37407
C         -0.81880        1.08399        0.64970
N         -0.97607        2.09957        1.06619
C          0.49435        0.58553        0.30140
C          1.68504        1.38617        0.22727
N          1.88201        2.46192        0.40023
H          2.37680       -2.63673       -1.01258
H          3.65957       -1.62787       -0.88151
H          0.03120       -3.32063        1.36675
H          1.11657       -2.10837        1.33825
H         -1.12678       -3.71115       -0.35349
H         -3.33112       -2.68707       -0.60346
H         -5.00847       -0.61671       -0.65291
H         -3.01642        1.97244       -0.59223
H         -0.25271        2.20782        1.77546
H         -1.84355        2.44644        1.47251
H          2.57841        3.04354       -0.06203
H          0.97063        2.87251        0.20533
