26
Coordinates from ORCA-job ./opt_b97-3c_parallel
N         -3.16579        3.33487       -0.09346
C         -2.50914        2.40127       -0.03331
C         -1.68638        1.21866        0.00252
C         -0.36316        1.64545        0.07564
C          0.87750        1.01194        0.09218
C          1.86193        2.06168        0.16317
N          2.61790        2.91626        0.23703
C          1.30353       -0.37065        0.03437
C          2.65076       -0.69578        0.00286
C          4.00855       -0.23351       -0.01373
N          4.93803        0.25094       -0.46974
C          2.75904       -2.06230       -0.02413
C          1.56048       -2.61793       -0.00738
C          0.63416       -1.63095        0.02241
N         -0.66760       -2.06548        0.06504
C         -1.79553       -1.35712        0.04078
C         -2.93894       -2.20477        0.04900
C         -4.06624       -1.47207       -0.01218
C         -3.69095       -0.20585       -0.05677
C         -2.31790       -0.08053       -0.01420
H         -0.28215        2.73768        0.11443
H          3.68475       -2.63850       -0.05540
H          1.35783       -3.68688       -0.02275
H         -2.90474       -3.29000        0.08266
H         -5.08550       -1.84968       -0.03656
H         -4.40056        0.61514       -0.12491
