30
Coordinates from ORCA-job ./opt_b97-3c_parallel
N         -3.40406        3.91597        1.44082
C         -2.95423        2.91976        1.11017
C         -2.38083        1.69034        0.65728
C         -3.18646        0.51116        0.60776
C         -2.44540       -0.56009        0.01251
C         -3.13109       -1.80541       -0.15107
N         -3.70803       -2.78329       -0.27752
C         -1.18833       -0.03948       -0.23984
C         -0.12934       -0.74604       -0.91226
C         -0.43777       -1.96869       -1.59963
N         -0.44832       -2.85481       -2.32132
C          0.96797       -0.88056        0.00748
C          1.40912       -2.15888        0.46579
C          1.49491       -3.56535        0.70293
N          0.76761       -4.39775        0.99633
C          2.62815       -1.85979        1.15670
N          2.92943       -0.55303        1.06331
C          1.88955        0.05226        0.37663
C          2.10165        1.35534       -0.20921
C          3.44874        1.87343       -0.25697
N          4.50945        2.29410       -0.33119
C          1.12999        2.21252       -0.73525
N          1.28457        3.20912       -1.20590
C         -0.23777        2.37465       -0.25202
C         -1.15068        1.33407        0.16016
H         -4.22742        0.45537        0.91375
H          3.55097       -2.03093        1.73178
H          0.75381        4.06886       -1.33543
H          2.26832        3.46770       -1.27218
H         -0.69478        3.36933       -0.25240
