31
Coordinates from ORCA-job ./opt_b97-3c_parallel
N          3.56414        3.73357        1.29055
C          3.20157        2.70330        0.95936
C          2.72124        1.41006        0.58823
C          3.58919        0.28404        0.56077
C          2.85579       -0.86594        0.13137
C          3.60809       -2.08180        0.06234
N          4.18436       -3.06701        0.02481
C          1.54274       -0.44784       -0.06507
C          0.45210       -1.25424       -0.43814
C          0.77064       -2.59312       -0.85812
N          0.96172       -3.66716       -1.19995
C         -0.97209       -0.90905       -0.30633
N         -1.83983       -2.01178       -0.32591
C         -2.95620       -1.61038        0.27169
N         -3.39466       -2.62707        0.19770
C         -2.88698       -0.30325        0.63837
C         -4.10117        0.00476        1.32752
N         -5.09087        0.21294        1.85794
C         -1.71777        0.18290        0.12232
C         -1.58780        1.47396       -0.23455
C         -2.28573        2.33901       -0.09267
N         -3.28701        2.70309       -0.50871
C         -0.47103        1.89799       -0.91267
N          0.04688        2.40629       -1.74993
N          0.49106        1.73942       -0.05866
C          1.48938        0.96618        0.18801
H          4.64539        0.30050        0.81549
H         -3.23391       -3.63446        0.24049
H         -4.29307       -2.47250        0.65921
H         -0.78909        2.90721       -2.04857
H          0.76130        3.11939       -1.59750
