29
Coordinates from ORCA-job ./opt_b97-3c_parallel
N         -0.80419        4.26670       -0.63731
C         -0.17739        3.33256       -0.44949
C          0.54455        2.12535       -0.20563
C          1.82859        2.11414        0.41861
C          2.29867        0.76457        0.48359
C          3.58919        0.55340        1.06349
N          4.62141        0.35600        1.50981
C          1.27007       -0.00095       -0.04136
C          1.30780       -1.44332       -0.26375
C          2.64059       -1.99397       -0.33413
N          3.15897       -1.98077       -1.35356
C          0.22904       -2.35141       -0.34639
N          0.33639       -3.44994       -0.47087
C         -1.20363       -2.25498       -0.00192
C         -2.03398       -1.14534        0.08251
C         -3.28371       -1.33319        0.59664
C         -3.78423       -0.08675        0.30925
N         -4.81059        0.27643        0.51716
N         -2.93463        0.77841       -0.36940
C         -1.79354        0.10429       -0.53611
N         -0.75168        0.37780       -1.23195
C          0.21854        0.83045       -0.52218
H          2.37389        2.99099        0.75837
H         -0.18308       -4.31956       -0.58889
H          1.31546       -3.70025       -0.61441
H         -1.71729       -3.19706        0.22679
H         -3.85592       -2.23348        0.37240
H         -5.27611        1.16061        0.30231
H         -5.54392       -0.31644        0.91157
