28
Coordinates from ORCA-job ./opt_b97-3c_parallel
N          1.07419        4.37618       -0.07507
C          1.33129        3.26337       -0.11894
C          1.67062        1.87081       -0.13062
C          2.97922        1.53233       -0.34988
C          2.93516        0.16494       -0.25207
C          4.26766       -0.30034       -0.49814
N          4.80641       -0.80355       -1.37242
C          1.66679       -0.28329        0.01917
C          1.30551       -1.67465        0.19973
C          2.22649       -2.76766        0.17913
N          2.96144       -3.64264        0.20026
C         -0.00885       -2.01023        0.42572
N         -1.25780       -1.71732        0.57577
C         -1.97795       -0.66500        0.33045
C         -3.31192       -0.47436        0.10879
C         -4.26856       -1.53919        0.10670
N         -5.03625       -2.11267       -0.51691
C         -3.40601        0.93459       -0.10439
N         -4.32189        1.51051       -0.33393
C         -2.26367        1.68706       -0.03744
C         -1.40216        0.64827        0.21841
N         -0.33913        0.95862        0.29368
C          0.74289        0.80138        0.10541
H          3.78320        2.11425        0.10025
H         -0.45816       -3.00149        0.59028
H         -4.81857        2.38607       -0.17942
H         -5.02650        0.81051       -0.56329
H         -2.22610        2.60622        0.54843
