29
Coordinates from ORCA-job ./opt_b97-3c_parallel
N          1.10590        5.01620        0.10601
C          0.83212        3.90823        0.04271
C          0.45118        2.52794       -0.06673
C         -0.79055        2.30220       -0.77575
C         -1.71631        1.29655       -0.53645
C         -3.01189        1.81161       -0.87411
N         -3.80762        1.84640       -1.69465
C         -1.51178        0.00248        0.05560
C         -2.61392       -0.82612        0.43474
C         -4.03422       -0.86016        0.62493
N         -4.72298       -0.28534        1.33382
C         -2.33689       -2.14835        0.68164
C         -1.05141       -2.14286        0.19893
C         -0.40360       -3.41897        0.17228
N          0.09785       -4.44549        0.18425
C         -0.47507       -0.85359       -0.08547
C          0.73440       -0.62888       -0.83388
C          1.28687       -1.66130       -1.66044
N          1.71332       -2.46194       -2.35540
C          1.58539        0.19625       -0.01604
C          2.89640       -0.18331        0.43661
C          3.61215       -1.41263        0.28737
N          4.20499       -2.38546        0.19875
C          3.37851        0.91818        1.20667
N          2.45746        1.94628        1.18430
C          1.34496        1.51882        0.47823
H         -1.15425        3.21785       -1.24414
H         -2.55520       -2.60781        1.64656
H          4.33782        1.02149        1.73594
