30
Coordinates from ORCA-job ./opt_b97-3c_parallel
N         -4.04037        2.69735        0.90552
C         -3.08981        2.13129        0.62365
C         -1.91987        1.37873        0.25710
C         -0.89246        2.16645       -0.37904
C          0.41509        1.77663       -0.46501
C          1.21029        2.69856       -1.22548
N          2.21102        3.19876       -0.99017
C          0.86530        0.86385        0.53727
N          2.13279        0.64947        0.73070
C          3.36318        0.25168        0.57356
N          4.16681        0.90314        0.97202
C          2.52668       -0.70332        0.03382
C          3.50195       -1.71088       -0.30199
N          3.51498       -2.61762        0.39513
C          1.19479       -0.34030        0.00806
C          0.17791       -1.19844       -0.58544
C          0.59176       -2.39143       -1.26632
N          0.88202       -3.35503       -1.80465
C         -1.25009       -1.06304       -0.24918
C         -2.05605       -2.17071       -0.32762
C         -3.26133       -1.88246        0.24459
N         -4.24631       -2.34181        0.44863
N         -3.24135       -0.54534        0.58304
C         -2.04573       -0.02846        0.24273
H         -1.18649        3.16101       -0.71519
H          4.94827        0.29609        1.22882
H          4.58686        1.80600        0.74291
H         -1.65638       -3.17809       -0.21604
H         -5.12889       -1.88248        0.68086
H         -4.49320       -3.31602        0.26477
