29
Coordinates from ORCA-job ./opt_b97-3c_parallel
N         -1.53944        4.48710       -0.00069
C         -1.66254        3.35499       -0.09572
C         -1.78655        1.93346       -0.18334
C         -2.89618        1.33771       -0.71537
C         -2.63920       -0.00002       -0.51607
C         -3.79563       -0.64245       -1.06694
N         -4.16326       -1.26843       -1.94988
C         -1.41516       -0.22911        0.07493
C         -0.93197       -1.56383        0.42069
C         -1.80180       -2.70034        0.37336
N         -2.48196       -3.61891        0.36648
C          0.45165       -1.80793        0.76900
N          1.19042       -2.57259        1.06346
N          1.47050       -1.02716        0.59991
C          2.11626        0.03690        0.24001
C          3.32969        0.31527       -0.34727
C          4.32699       -0.61822       -0.76633
N          5.15909       -1.15858       -1.33367
C          3.45113        1.66834       -0.47411
C          2.37295        2.26754        0.00280
C          1.52253        1.31396        0.45553
C          0.29974        1.39389        1.04507
C         -0.81067        1.03796        0.33855
H         -3.88100        1.77080       -0.53540
H          2.12797       -2.96405        0.99617
H          0.55233       -3.35295        1.20658
H          4.30918        2.17973       -0.90468
H          2.19885        3.34071        0.02921
H          0.21007        1.72563        2.07636
