25
Coordinates from ORCA-job ./opt_b97-3c_parallel
N          0.48100       -4.30703       -1.08382
C          0.02078       -3.29519       -0.82284
C         -0.50207       -2.00940       -0.49012
C         -1.72736       -1.85607        0.23480
C         -1.95533       -0.46394        0.47475
C         -3.12374       -0.06549        1.19268
N         -4.07541        0.23253        1.74918
C         -0.89559        0.17581       -0.12552
C         -0.71067        1.61470       -0.13293
C         -1.48523        2.62931        0.52013
N         -2.40133        3.29880        0.65128
C          0.12356        2.40502       -0.89209
C          1.45734        2.33558       -0.87369
C          2.14964        1.39801       -0.15918
C          3.17227        1.53669        0.71108
C          3.71706        0.36225        1.01273
N          3.04120       -0.56265        0.33783
C          2.05018        0.01047       -0.43854
N          1.15521       -0.44862       -1.25924
C          0.02055       -0.75984       -0.71806
H         -2.36840       -2.66735        0.56871
H         -0.32004        3.14853       -1.55831
H          2.01954        3.01751       -1.50880
H          3.51479        2.49008        1.10841
H          4.56383        0.14146        1.68153
