29
Coordinates from ORCA-job ./opt_b97-3c_parallel
N         -0.98001        4.58093       -0.09790
C         -1.32285        3.49145       -0.05520
C         -1.78172        2.13886       -0.02363
C         -3.14338        1.82484        0.27387
C         -3.31203        0.40635        0.22406
C         -4.59275       -0.16421        0.50017
N         -5.61152       -0.61389        0.75443
C         -2.07824       -0.11738       -0.08637
C         -1.80898       -1.47291       -0.22159
C         -2.59629       -2.66678       -0.16925
N         -3.25447       -3.60141       -0.14271
C         -0.57089       -2.05110       -0.41193
N          0.71112       -2.13893       -0.56610
C          1.49131       -1.12327       -0.35421
C          2.88528       -1.20649       -0.02442
C          3.56660       -2.45929        0.11709
N          4.12526       -3.44669        0.25776
C          3.55334       -0.01920        0.17517
N          4.82882        0.23639        0.52270
C          2.48002        0.80863       -0.04392
C          2.64144        2.22943        0.05893
N          2.95713        3.28175       -0.25618
C          1.22628        0.20625       -0.36078
N          0.12051        0.83801       -0.57048
C         -1.12497        0.95448       -0.24680
H         -3.92225        2.54665        0.50071
H         -0.12846       -3.05355       -0.53284
H          5.54566       -0.47810        0.40640
H          5.24533        1.14261        0.31421
