25
Coordinates from ORCA-job ./opt_b97-3c_parallel
N         -4.44629       -2.28701        0.30668
C         -3.57271       -1.55277        0.24582
C         -2.50627       -0.60346        0.18030
C         -2.76793        0.79523        0.28140
C         -1.54362        1.52180        0.14107
C         -1.62997        2.94703        0.22783
N         -1.71480        4.08225        0.32848
C         -0.55931        0.56092       -0.00776
C          0.85905        0.88676       -0.17736
C          1.27659        2.23448       -0.44495
N          1.53288        3.00249       -1.25181
C          1.94931       -0.05888        0.07059
C          3.31681        0.35809        0.12496
C          4.07822       -0.67432        0.55111
C          3.26694       -1.69875        0.78206
C          1.96158       -1.36727        0.51713
N          1.71712       -2.37504       -0.40491
C          0.40705       -2.49272       -0.80493
N         -0.57371       -1.86640       -0.25417
C         -1.15534       -0.74812       -0.00627
H         -3.74862        1.23867        0.42668
H          3.69538        1.35445       -0.07946
H          5.15471       -0.65932        0.70197
H          3.59876       -2.66056        1.17159
H          0.24881       -3.30650       -1.52881
