28
Coordinates from ORCA-job ./opt_b97-3c_parallel
N         -0.31590       -4.58504        0.05523
C          0.10592       -3.54348       -0.15155
C          0.62962       -2.22923       -0.36996
C          1.93653       -2.05111       -0.72783
C          2.11834       -0.71625       -0.43750
C          3.53093       -0.50213       -0.55673
N          4.19708        0.05575       -1.29979
C          0.93778       -0.05858       -0.15638
C          0.86528        1.26870        0.40625
C          2.05077        1.85999        0.97636
N          2.97240        2.34141        1.45139
C         -0.16043        2.15049        0.05740
N         -0.11877        3.25848        0.15526
C         -1.32369        1.98022       -0.69342
C         -2.26349        0.89639       -0.54834
N         -3.56504        1.10439       -0.97045
C         -4.32526        0.19520       -0.36230
C         -3.58859       -0.53395        0.47165
C         -2.29964       -0.15036        0.39855
C         -1.20527       -0.99845        0.75510
C         -0.09594       -1.02009       -0.15376
H          2.67998       -2.80965       -0.47830
H         -0.80381        3.96443        0.41958
H          0.79730        3.70065        0.21723
H         -1.79342        2.81687       -1.22205
H         -5.38538        0.25204       -0.65174
H         -3.96944       -1.33746        1.09749
H         -1.49572       -1.92718        1.23638
