30
Coordinates from ORCA-job ./opt_b97-3c_parallel
N         -2.93208        3.45134        1.32179
C         -2.34719        2.54883        0.93955
C         -1.61603        1.43110        0.42172
C         -0.26935        1.65580       -0.04936
N         -0.15981        2.07901       -1.06699
C          1.12443        1.54248        0.30752
C          1.71490        0.29429        0.16502
C          3.10666        0.03309        0.34060
C          4.07226        1.02714        0.69017
N          4.86990        1.80238        0.94616
C          3.21232       -1.30505        0.06008
N          4.04738       -2.03353        0.02203
N          2.06516       -1.92727       -0.26125
C          1.08462       -0.94281       -0.21033
N         -0.18398       -1.08479       -0.43738
C         -1.45945       -1.01846       -0.20414
C         -2.18370       -2.16581       -0.29713
C         -3.26236       -1.44873        0.15810
N         -4.11197       -2.12157        0.38688
C         -3.51647       -0.15157        0.52765
C         -2.21070        0.11531        0.25147
H          0.28718        2.99648       -1.02982
H         -1.02625        2.22354       -1.58709
H          1.70022        2.41060        0.62365
H          4.98206       -1.62604       -0.05705
H          4.20256       -3.04144        0.08799
H         -2.23193       -2.72365       -1.23216
H         -5.02138       -1.66981        0.48788
H         -4.29899       -3.12421        0.39762
H         -4.31264        0.42506        0.05783
