29
Coordinates from ORCA-job ./opt_b97-3c_parallel
N          1.96505        4.32757        0.28094
C          1.83255        3.20354        0.11968
C          1.71490        1.79081       -0.07681
C          2.78625        1.12322       -0.59966
C          2.37025       -0.17677       -0.45699
C          3.49846       -0.93233       -0.91711
N          3.83961       -1.75355       -1.63581
C          1.07470       -0.27417        0.00136
C          0.42410       -1.51936        0.37926
C          1.34082       -2.58795        0.71470
N          2.05645       -3.42865        1.01999
C         -0.97868       -1.74850        0.31971
N         -1.25460       -2.79765        0.59378
C         -2.09805       -1.01726       -0.16847
C         -3.30754       -1.69843       -0.59244
N         -4.24372       -2.24199       -0.96024
C         -2.20516        0.43008       -0.24660
C         -3.29574        1.16033       -0.62016
C         -3.07055        2.41263       -0.25526
C         -1.88195        2.54909        0.31823
C         -1.28083        1.32166        0.36179
N         -0.32003        1.30663        0.88709
C          0.58795        1.01006        0.34058
H          3.80084        1.43856       -0.34995
H         -2.21242       -3.12220        0.72166
H         -0.65123       -3.55602        0.90662
H         -4.20041        0.79377       -1.10067
H         -3.77475        3.22767       -0.40439
H         -1.47916        3.48345        0.70736
