26
Coordinates from ORCA-job ./opt_b97-3c_parallel
N         -2.84035        4.11476       -0.41564
C         -2.48263        3.03041       -0.45572
C         -2.06724        1.66189       -0.47994
C         -2.96090        0.68020       -0.80350
C         -2.27113       -0.45522       -0.44267
C         -3.21077       -1.50391       -0.71327
N         -3.97152       -2.35103       -0.81366
C         -0.98614       -0.19316       -0.01809
C         -0.07788       -1.21016        0.48902
C         -0.62583       -2.47854        0.89183
N         -1.08733       -3.46924        1.22937
C          1.31368       -1.20975        0.29162
N          2.04235       -2.32857        0.45380
C          3.29858       -2.08715       -0.07915
N          3.34869       -0.79215       -0.55532
C          2.11833       -0.25353       -0.28273
C          1.93231        1.16351       -0.43605
C          2.91304        2.01834       -1.04725
N          3.71352        2.69747       -1.50048
C          1.36719        1.93747        0.53418
C          0.06253        1.95748        0.74298
C         -0.80457        1.21221        0.00558
H         -4.01546        0.81299       -0.55271
H          4.01747       -2.91989       -0.04490
H          1.99933        2.54333        1.18411
H         -0.33186        2.58766        1.53756
