30
Coordinates from ORCA-job ./opt_b97-3c_parallel
N          0.27209       -4.40925       -0.78756
C          0.73318       -3.37066       -0.66681
C          1.29630       -2.06889       -0.47590
C          2.65077       -1.91094       -0.39330
C          2.78274       -0.58281       -0.05037
C          4.19885       -0.41326        0.09696
N          5.09159       -0.00029       -0.48578
C          1.58200        0.09759       -0.00832
C          1.49675        1.48150        0.43195
C          2.56556        2.13176        1.12752
N          3.41214        2.67850        1.66638
C          0.39984        2.28749       -0.01403
C         -0.42616        1.90271       -1.01773
C         -1.52039        1.56091       -0.29734
C         -2.63254        2.33923       -0.12384
C         -3.58859        1.43037        0.27307
N         -4.60097        1.85059        0.41011
C         -3.13135        0.13628        0.41344
C         -3.79044       -1.08640        0.76188
N         -4.31798       -2.07031        1.00665
C         -1.75214        0.22200        0.08310
C         -0.89044       -0.91962       -0.09710
C          0.55283       -0.86730       -0.28392
H          3.26125       -2.69191        0.06230
H          0.39924        3.32653        0.30610
H         -0.51325        2.49256       -1.92705
H         -2.86137        3.14725       -0.81791
H         -5.20530        2.62240        0.13342
H         -5.18957        1.02019        0.45898
H         -1.35772       -1.89768       -0.05743
