29
Coordinates from ORCA-job ./opt_b97-3c_parallel
N         -4.71341        2.05657       -0.04995
C         -3.88710        1.26687       -0.04318
C         -2.85240        0.27556        0.00339
C         -2.96423       -1.08937        0.07777
N         -3.82614       -1.77880        0.12279
C         -1.75507       -1.73064        0.08341
C         -0.79481       -0.74464        0.10033
C          0.62931       -1.14078        0.16323
C          0.88891       -2.55419        0.25562
N          1.09859       -3.67745        0.29652
C          1.83295       -0.31024        0.11528
C          3.08516       -0.85508        0.11044
C          3.71936        0.34832        0.24668
N          4.81660        0.25754        0.35187
C          3.14852        1.58304        0.07648
C          1.85841        1.10958        0.12729
N          1.45303        2.13387        0.16917
C          0.36977        2.17117        0.08549
C         -1.01092        1.91493       -0.01021
C         -1.45040        0.54579        0.01905
H         -4.71783       -1.28720        0.09308
H         -4.03874       -2.77280        0.18492
H         -1.61872       -2.62321       -0.52865
H          3.38051       -1.56627       -0.65991
H          5.26779       -0.64965        0.24848
H          5.54117        0.96163        0.22331
H          3.52667        2.23145       -0.72411
H          0.40836        3.27135        0.05228
H         -1.70868        2.74405       -0.07753
