29
Coordinates from ORCA-job ./opt_b97-3c_parallel
N          0.41680        4.50204       -0.54176
C          0.73396        3.40576       -0.47896
C          1.11608        2.03103       -0.35926
C          2.44261        1.71348       -0.41641
C          2.43198        0.36570       -0.13873
C          3.82483        0.02777       -0.15203
N          4.76490       -0.34563       -0.68498
C          1.16268       -0.15764        0.00683
C          0.95210       -1.54065        0.40580
C          2.00277       -2.35594        0.93582
N          2.84539       -3.02162        1.32769
C         -0.29248       -2.17210        0.08972
C         -1.15472       -1.64356       -0.80993
C         -2.14928       -1.11382       -0.05973
C         -3.35498       -1.72511        0.09911
C         -3.91272       -0.49451        0.34993
N         -5.02143       -0.48443        0.34796
C         -3.37313        0.70738        0.74044
C         -2.15879        0.24125        0.34145
C         -1.12409        1.13881        0.13934
C          0.23058        0.93392       -0.12137
H          3.18030        2.39031        0.01772
H         -0.40106       -3.21205        0.38563
H         -1.36690       -2.15444       -1.74633
H         -3.75064       -2.39253       -0.66564
H         -5.64632       -1.19328       -0.03152
H         -5.47122        0.41526        0.18772
H         -3.75680        1.65625        0.36500
H         -1.42847        2.17742        0.23107
