30
Coordinates from ORCA-job ./opt_b97-3c_parallel
N          2.53977       -4.09897        0.06314
C          1.89087       -3.15927        0.03421
C          1.11642       -1.94762       -0.00072
C         -0.33691       -2.14413       -0.04528
C         -1.48688       -1.33596       -0.03625
C         -2.61298       -2.22793       -0.03442
N         -3.33104       -3.04043       -0.39520
C         -1.70435        0.09916       -0.01732
C         -3.00288        0.70611        0.01152
C         -4.38260        0.31150        0.05119
N         -5.38992       -0.09829        0.40293
C         -2.84902        2.06502       -0.02333
N         -3.73366        3.07984       -0.03789
C         -1.53703        2.28333       -0.06736
C         -0.81658        1.12333       -0.07505
N          0.44119        0.98023       -0.22253
C          1.62651        0.53908       -0.07659
C          2.76264        1.29913       -0.03425
C          3.00030        2.70630       -0.09809
N          3.23539        3.82280       -0.14340
C          3.84769        0.38484        0.07868
N          4.93616        0.19810        0.15061
N          3.33739       -0.89606        0.11020
C          1.98358       -0.84006        0.02195
H         -0.52598       -3.21967       -0.06214
H         -3.47692        4.00557        0.29975
H         -4.71191        2.91369        0.19781
H         -1.08821        3.27408       -0.10959
H          5.61021       -0.56808        0.17422
H          5.48899        1.05422        0.08956
