28
Coordinates from ORCA-job ./opt_b97-3c_parallel
N         -3.14486       -3.19097       -0.96692
C         -2.78693       -2.33114       -0.30081
C         -2.10449       -1.08671       -0.09072
C         -2.90123        0.04610        0.24358
N         -3.97962        0.23248        0.41142
C         -2.25025        1.22784        0.44348
C         -0.94331        0.85748        0.19531
C          0.04094        1.92973        0.00900
C         -0.36619        3.30839        0.01002
N         -0.68401        4.40563        0.04999
C          1.44545        1.69817       -0.13576
N          2.37424        2.27818       -0.30027
N          2.06274        0.74595        0.45959
C          2.30698       -0.49236        0.26354
C          3.62183       -1.00320        0.43838
C          3.56155       -2.39522        0.13759
N          2.26664       -2.70819       -0.22961
C          1.57236       -1.56287       -0.12638
C          0.21014       -1.57806       -0.34474
C         -0.82844       -0.58209       -0.08178
H         -4.67362        0.88917        0.76261
H         -4.48191       -0.60556        0.12349
H         -2.66641        2.17188        0.08456
H          1.83397        3.03484       -0.71607
H          3.33944        2.41262       -0.59565
H          4.50122       -0.44821        0.75017
H          4.22757       -3.27100        0.11505
H         -0.18635       -2.55375       -0.61199
