24
Coordinates from ORCA-job ./opt_b97-3c_parallel
N         -3.88918       -2.56879        0.03654
C         -2.94519       -1.92511        0.05839
C         -1.75636       -1.10561        0.07149
C         -0.55379       -1.83733        0.15789
C          0.81019       -1.51442        0.00314
C          1.67734       -2.66924       -0.07499
N          2.34813       -3.59280       -0.13512
C          1.41681       -0.24428       -0.12603
N          2.71826       -0.05008       -0.39937
C          2.54703        1.03366       -0.19476
N          3.86223        1.40626       -0.23369
N          1.92497        1.92199        0.07327
C          0.88777        1.08054        0.19679
N         -0.07026        1.15195        1.13109
C         -1.04145        1.40802        0.24419
N         -1.54300        2.62907        0.00477
C         -2.61199        2.49558       -0.20883
C         -2.73157        1.07157       -0.22789
C         -1.96747        0.28221       -0.07217
H         -0.72195       -2.90994        0.26980
H          4.58467        0.69634       -0.28612
H          4.12796        2.33261        0.08045
H         -3.37144        3.25346       -0.36047
H         -3.70223        0.62452       -0.42157
