31
Coordinates from ORCA-job ./opt_b97-3c_parallel
N          4.97600       -1.69258        0.14934
C          4.02181       -1.06614        0.18709
C          2.80691       -0.30878        0.21323
C          2.84194        1.06184        0.58364
C          1.53447        1.62328        0.44435
C          1.43162        3.02368        0.72183
N          1.38979        4.14544        0.94163
C          0.68202        0.60009        0.03500
C         -0.56845        0.79505       -0.55421
C         -0.72388        2.07297       -1.19642
N         -0.88863        3.08467       -1.70618
C         -1.77886        0.04191       -0.26548
C         -3.00168        0.62851       -0.44235
C         -3.69165       -0.33543        0.23711
N         -4.78461       -0.18818        0.31873
C         -3.17936       -1.43838        0.86082
C         -1.90243       -1.19724        0.43873
C         -1.10983       -2.32907        0.37416
C          0.06180       -2.57459       -0.31390
N          0.25729       -3.65405       -0.47147
C          1.17783       -1.84593       -0.66916
C          1.49221       -0.58370       -0.06656
H          3.73760        1.61222        0.85686
H         -3.16468        1.68024       -0.20625
H         -5.52498       -0.81122        0.63888
H         -5.23195        0.69199        0.06900
H         -3.65050       -2.41191        0.71733
H         -1.59932       -3.21616        0.78168
H          1.18120       -4.06411       -0.34684
H         -0.41371       -4.41088       -0.35475
H          2.04011       -2.39071       -1.05893
