29
Coordinates from ORCA-job ./opt_b97-3c_parallel
N          5.13465        1.58131        1.14844
C          4.21631        0.97743        0.83620
C          3.06235        0.24176        0.41148
C          3.08672       -1.16862        0.24406
N          3.84070       -1.96766        0.36841
C          1.91564       -1.67446       -0.24107
C          1.09382       -0.56814       -0.33270
C         -0.34703       -0.74985       -0.61317
C         -0.71059       -2.05426       -1.09079
N         -0.98790       -3.08083       -1.50756
C         -1.43426        0.19361       -0.25462
C         -2.75796       -0.27594        0.09446
C         -3.29934       -1.58901        0.27404
N         -3.77478       -2.61247        0.44742
C         -3.51738        0.89045        0.42639
N         -4.50034        1.26171        0.77270
N         -2.72684        2.01210        0.27918
C         -1.53089        1.57236       -0.13975
C         -0.60770        2.51276       -0.51426
C          0.55273        2.01567       -1.14392
N          1.53378        1.87835       -0.21270
C          1.81230        0.58483       -0.02425
H          4.01738       -2.93207        0.09162
H          4.74930       -1.50824        0.41776
H          1.53629       -2.62758        0.13186
H         -5.05191        2.11992        0.77697
H         -5.16134        0.50319        0.94588
H         -0.75869        3.58306       -0.37966
H          0.92617        3.05115       -1.18326
