29
Coordinates from ORCA-job ./opt_b97-3c_parallel
N         -3.92442        2.97746        0.71567
C         -3.29425        2.03577        0.56840
C         -2.47450        0.87451        0.35109
C         -1.04730        0.92158        0.55322
N         -0.42214        1.73409        0.94502
C          0.06655        2.43297        0.26272
C          1.32337        2.45736       -0.39780
C          2.24763        1.37228       -0.18374
C          3.57710        1.55269       -0.42726
C          4.13749        0.35275       -0.06001
N          5.07988       -0.22128       -0.00642
N          3.18806       -0.52680        0.29454
C          1.97339        0.02786        0.25851
C          0.79091       -0.84370        0.36230
C          1.04400       -2.24924        0.51845
N          1.29434       -3.35561        0.65045
C         -0.59098       -0.39114        0.23091
C         -1.64850       -1.21824       -0.08782
C         -1.87085       -2.58274       -0.48223
N         -1.50990       -2.85947       -1.53144
C         -2.83546       -0.40212       -0.03528
N         -3.90429       -0.63016       -0.22965
H         -0.42347        3.40275        0.07789
H          1.65346        3.37742       -0.87187
H          3.91949        2.08716       -1.31147
H          5.24920       -1.22402        0.07931
H          6.00067        0.21298       -0.07124
H         -4.24026       -1.54378       -0.53133
H         -4.72076       -0.02133       -0.18332
