30
Coordinates from ORCA-job ./opt_b97-3c_parallel
N         -2.13249        4.29708       -0.29606
C         -2.23752        3.16013       -0.24183
C         -2.32093        1.73637       -0.14423
C         -3.50439        1.05601       -0.15999
C         -3.09978       -0.24005        0.06434
C         -4.14833       -1.20970        0.15628
N         -4.28650       -1.96549       -0.68955
C         -1.73929       -0.41298        0.21077
N         -1.04254       -1.44669        0.55070
C         -0.18677       -2.36660        0.24385
N         -0.47348       -2.92082        1.15535
C          0.61588       -1.76741       -0.68709
C          0.68639       -2.30700       -1.65779
N          1.30697       -2.92771       -2.39173
C          1.56040       -0.86414       -0.26980
N          2.92828       -1.13034       -0.19649
C          3.50653        0.04061        0.10186
N          4.58699       -0.19631        0.11875
C          2.65812        1.10256        0.25638
C          2.91924        2.47757        0.54828
N          3.16518        3.57030        0.76987
C          1.36537        0.53019        0.05128
C          0.17121        1.36159        0.06677
C         -1.19460        0.87899        0.00355
H         -4.27112        1.28951       -0.89711
H         -0.01721       -3.83122        1.17677
H         -1.42923       -3.07842        1.47761
H          5.17443       -0.96599       -0.20330
H          5.21951        0.58851        0.28102
H          0.30973        2.43654        0.11588
