26
Coordinates from ORCA-job ./opt_b97-3c_parallel
N         -1.94502       -4.01277       -0.00603
C         -1.38474       -3.01710       -0.00494
C         -0.64823       -1.77628       -0.00330
C          0.76765       -2.00221        0.00104
C          1.93451       -1.17166        0.00326
C          3.13901       -1.96903        0.00717
N          4.06545       -2.63858        0.01012
C          2.11833        0.20913        0.00216
N          3.38825        0.65915        0.00405
C          3.41201        2.03464        0.00271
N          2.09273        2.40945       -0.00000
C          1.27539        1.29429       -0.00060
C         -0.15508        1.58974       -0.00348
C         -0.48289        3.00537       -0.00462
N         -0.77773        4.11011       -0.00547
C         -1.30360        0.76882       -0.00597
C         -2.55255        1.34987       -0.00996
C         -3.50792        0.38930       -0.01196
N         -4.60989        0.31689       -0.01489
N         -2.83396       -0.81171       -0.00982
C         -1.48692       -0.65885       -0.00616
H          1.01535       -3.06396        0.00264
H          4.32699        2.64708        0.00371
H         -2.82385        2.40385       -0.00807
H         -5.22026       -0.50027       -0.01646
H         -5.22828        1.12821       -0.01590
