36
Coordinates from ORCA-job ./opt_b97-3c_parallel
N         -1.57681       -4.89651        0.71179
C         -1.38084       -3.78786        0.51512
C         -1.16145       -2.38214        0.30558
C         -2.23483       -1.64817       -0.31285
C         -2.35045       -0.22708       -0.58420
C         -3.44620        0.23634       -1.23322
C         -3.54683        1.53060       -0.99065
C         -2.57240        2.00122       -0.22056
N         -2.51004        3.30989        0.07944
C         -1.75454        0.92622        0.06490
C         -0.65407        0.91946        1.02307
N         -0.59347        1.79996        1.69002
C          0.59287        0.59849        0.35791
C          1.73309        1.46895        0.20616
N          1.95191        2.52100        0.47709
C          2.71116        0.63689       -0.47762
C          4.03075        1.09740       -0.82274
N          5.08777        1.45388       -1.06664
C          2.21722       -0.64467       -0.67016
N          2.76418       -1.51379       -1.08450
C          0.88450       -0.62560       -0.13947
C          0.15413       -1.79206        0.28614
N          0.73999       -2.13173        1.16982
H         -3.08927       -2.24459       -0.62105
H         -4.12990       -0.35172       -1.84166
H         -4.34673        2.14766       -1.39520
H         -3.10351        3.97419       -0.41385
H         -1.60716        3.75287        0.23751
H          0.16523        2.29306        2.15613
H         -1.41817        2.39654        1.73933
H          2.76542        3.08810        0.24649
H          1.14662        3.14281        0.50340
H          2.58962       -2.50865       -1.21067
H          3.76311       -1.36734       -1.22329
H          1.73457       -1.91158        1.19166
H          0.67757       -3.12972        0.97507
