31
Coordinates from ORCA-job ./opt_b97-3c_parallel
N          5.51717        0.93208       -0.55696
C          4.38170        0.88828       -0.68563
C          3.04861        0.46140       -0.39191
C          2.20931        1.62831       -0.24092
C          0.95015        1.17050        0.03860
C         -0.12623        2.10285        0.28293
C         -1.51705        1.71339        0.24563
C         -2.47572        2.74807        0.48293
N         -3.44863        2.28094        0.27072
C         -3.06263        1.44530       -0.33163
C         -2.00227        0.47184       -0.30356
C         -2.10254       -0.93695       -0.61437
N         -2.96135       -1.26799       -1.22704
C         -1.05512       -1.75328       -0.04263
C         -1.01122       -3.18078       -0.17757
N         -1.00534       -4.32066       -0.24923
C         -0.04782       -1.03240        0.69847
N          0.03591       -1.13161        1.79884
C          0.97034       -0.19542        0.10425
C          2.24169       -0.63979       -0.15059
N          2.73639       -1.62818       -0.15298
H          2.52206        2.66433       -0.33501
H          0.11216        3.15469        0.41138
H         -2.48048        3.80514        0.79057
H         -4.04380        1.20764       -0.77374
H         -3.79753       -0.84973       -1.62980
H         -3.13161       -2.27032       -1.16463
H         -0.25345       -2.09008        1.98375
H          1.04426       -1.10072        1.93933
H          2.40691       -2.51741       -0.52219
H          3.74177       -1.59628       -0.31078
