29
Coordinates from ORCA-job ./opt_b97-3c_parallel
N         -5.35910       -0.06261       -0.21272
C         -4.21580       -0.06692       -0.22593
C         -2.77951       -0.07467       -0.19974
C         -2.15778       -1.28050       -0.16954
C         -0.83872       -0.88846       -0.13329
C          0.22144       -1.86166       -0.10813
N         -0.03653       -2.94660       -0.15242
N          1.27526       -2.17708       -0.07502
C          2.16176       -1.53414        0.04595
C          2.65789       -0.20681        0.10437
C          4.04894        0.06055        0.25164
N          3.60341        1.08357        0.16915
C          2.97112        2.00088        0.06884
C          1.93763        1.00159       -0.00027
C          0.50148        1.31178       -0.12367
N          0.42122        2.41893       -0.17793
C         -0.65091        0.49256       -0.14548
C         -1.91247        1.06250       -0.18797
N         -2.41403        2.05321       -0.20772
H         -2.52426       -2.07694        0.47556
H         -0.35576       -2.71244       -1.09075
H          0.30969       -3.90340       -0.18927
H          2.87681       -2.36496        0.14267
H          4.97951       -0.51599        0.36136
H          3.26494        3.06108        0.06914
H          1.11292        3.14775       -0.33866
H         -0.32122        2.56601       -0.85985
H         -1.73860        2.30191        0.51330
H         -3.34030        2.20551        0.18736
