33
Coordinates from ORCA-job ./opt_b97-3c_parallel
N         -5.94300       -1.66972       -0.52392
C         -4.87631       -1.28860       -0.37941
C         -3.54850       -0.78509       -0.22487
C         -3.29873        0.56137        0.12961
C         -1.88507        0.59287        0.22097
C         -1.27458        1.77635        0.73210
N         -1.64476        2.75141        1.09848
N          0.00214        1.90894        0.77356
C          0.79159        1.85284       -0.24740
N          0.99907        2.88905       -0.57829
C          1.58737        0.69459       -0.53044
C          2.81717        0.81679       -1.10451
C          3.16697       -0.36647       -0.51352
C          4.59291       -0.44951       -0.65724
N          5.73217       -0.50856       -0.73432
C          2.44303       -1.34702        0.11470
N          2.92664       -2.37558        0.83697
C          1.29827       -0.59224        0.04063
C         -0.05727       -1.18838        0.10728
N         -0.00529       -2.29678        0.19219
C         -1.35545       -0.65674       -0.05214
C         -2.40304       -1.51450       -0.36123
H         -4.01451        1.34965        0.34274
H         -1.97738        2.09195        1.79911
H         -1.06631        3.43244        1.58810
H          1.22687        2.57025       -1.51808
H          0.21808        3.53649       -0.66929
H          3.40709        1.72405       -0.96926
H          3.92715       -2.44723        1.01516
H          2.43466       -2.68757        1.67209
H         -0.73254       -2.95123        0.47253
H          0.84008       -2.84226        0.03310
H         -2.31365       -2.22828       -1.17778
