30
Coordinates from ORCA-job ./opt_b97-3c_parallel
N          5.44588       -0.54429       -0.57672
C          4.33012       -0.33125       -0.46384
C          2.92431       -0.10503       -0.31350
C          2.46660        1.17359       -0.16895
C          1.12724        0.94538        0.00578
C          0.15698        1.78534        0.63167
N          0.19775        2.34227        1.58042
C         -0.38394        2.32675       -0.57511
C         -1.72680        1.92242       -0.87169
C         -2.36604        0.77626       -0.26018
C         -3.72676        0.67185       -0.27153
N         -3.97349       -0.57897        0.09535
C         -2.84010       -1.33354        0.33362
N         -3.27198       -2.32421        0.56013
C         -1.73527       -0.46587        0.11474
C         -0.45397       -1.00457        0.08527
C          0.76643       -0.37293       -0.08524
C          1.94782       -1.15068       -0.27781
N          2.10213       -2.24327       -0.35789
H          2.81441        1.96899       -0.82463
H          0.25553        3.35245        1.45585
H          1.05683        2.06382        2.05319
H          0.00961        3.21683       -1.05917
H         -2.33032        2.60373       -1.46398
H         -4.60351        1.31277       -0.45269
H         -2.58271       -3.02582        0.29248
H         -4.12799       -2.83363        0.77696
H         -0.41000       -2.08452        0.19180
H          2.26887       -2.34205        0.64208
H          2.98563       -2.45394       -0.82084
