34
Coordinates from ORCA-job ./opt_b97-3c_parallel
N          2.62849       -4.05960       -0.61267
C          2.01230       -3.11945       -0.40840
C          1.25158       -1.94094       -0.11303
C          1.74516       -1.16146        0.88156
C          2.31086       -0.20021        0.10768
C          3.61351       -0.08213       -0.25705
C          3.83791        1.18887       -0.55192
C          2.75699        1.95206       -0.42864
N          2.77973        3.26848       -0.69660
C          1.74755        1.09592       -0.05742
C          0.42318        1.40231        0.47469
N          0.35471        2.46483        0.78135
C         -0.74274        0.51194        0.32487
C         -2.05186        1.07180        0.59493
N         -2.45713        2.01397        1.01977
C         -2.99494        0.10229        0.08323
C         -4.42649        0.28560        0.11389
N         -5.55995        0.43237        0.10236
C         -2.30932       -0.97322       -0.44444
N         -2.84344       -1.84184       -0.88295
C         -0.90247       -0.73812       -0.26230
C         -0.05620       -1.76428       -0.66418
H          2.27493       -1.58357        1.73354
H          4.34472       -0.88621       -0.29527
H          4.80937        1.56420       -0.86654
H          3.46061        3.64920       -1.35050
H          1.90588        3.77869       -0.81386
H         -0.17375        2.35234        1.64524
H          1.26535        2.84297        1.03878
H         -1.75544        2.50184        0.46577
H         -3.36468        2.37017        0.72649
H         -3.85988       -1.79135       -0.83124
H         -2.61141       -2.79776       -1.14560
H         -0.41944       -2.59323       -1.26497
