34
Coordinates from ORCA-job ./opt_b97-3c_parallel
N         -5.56112        2.45165        0.33391
C         -4.61758        1.82933        0.16588
C         -3.42070        1.05148       -0.00287
C         -2.24500        1.69757       -0.20863
C         -1.33253        0.67294       -0.26218
C          0.01531        1.10436       -0.50775
C          1.28155        0.46445       -0.26638
C          2.40726        1.26578       -0.26407
N          2.56634        2.34518       -0.46649
C          3.53671        0.45325        0.11907
C          4.89637        0.91421        0.25253
N          5.95556        1.32857        0.36670
C          3.09295       -0.83915        0.32575
N          3.79035       -1.65566        0.60559
C          1.67287       -0.86201        0.08315
C          1.05048       -2.15681        0.06086
C         -0.26829       -2.58853       -0.28744
C         -1.49555       -1.93409       -0.35032
N         -2.18048       -2.79938       -0.47972
C         -1.95349       -0.56178       -0.17122
C         -3.31410       -0.37246       -0.00107
N         -4.26631       -0.93052        0.12145
H         -2.02122        2.62612        0.31323
H          0.08599        2.17228       -0.69516
H          3.50441        2.74093       -0.50493
H          1.97634        2.92721       -1.05747
H          3.47132       -2.44313        1.16610
H          4.76891       -1.50037        0.84216
H          1.72273       -2.99453        0.21693
H         -0.21455       -3.68146       -0.37856
H         -2.93571       -2.37009       -1.01242
H         -2.15070       -3.77943       -0.75424
H         -5.11239       -0.62445        0.59854
H         -3.95063       -1.78113        0.58553
