28
Coordinates from ORCA-job ./opt_b97-3c_parallel
N         -0.29608        4.82691       -0.06152
C         -0.22901        3.68628       -0.05625
C         -0.14704        2.24177       -0.03434
C         -1.41001        1.62924       -0.11945
C         -1.90496        0.30907       -0.08378
C         -3.29809        0.20282       -0.15435
C         -3.49478       -1.21838       -0.03990
C         -2.31080       -2.02558        0.09547
N         -2.13222       -3.37485        0.23481
C         -1.30872       -1.04284        0.03748
C          0.03462       -1.42370        0.03892
C          1.31559       -0.88560        0.01268
C          2.30627       -1.37311       -0.00571
N          2.88930       -2.59181       -0.21920
N          3.18814       -0.73074        0.13542
C          2.85792        0.32037        0.14498
C          1.77648        0.52543        0.07651
C          1.17725        1.79128        0.06928
H         -2.21033        2.36389       -0.21292
H         -3.96017        1.06091       -0.24440
H         -4.48592       -1.65937       -0.06989
H         -2.94145       -3.94916        0.44324
H         -1.22379       -3.71429        0.53024
H          0.13568       -2.50493        0.05782
H          2.32639       -3.36070       -0.56589
H          3.89557       -2.65520       -0.32078
H          3.80105        0.84302        0.26260
H          1.90989        2.59759        0.13521
