32
Coordinates from ORCA-job ./opt_b97-3c_parallel
N          0.28730       -4.26474       -1.46317
C          0.16808       -3.19264       -1.08283
C          0.06409       -1.83575       -0.61931
C         -1.04619       -1.53933        0.23550
C         -1.70767       -0.24969        0.23992
C         -3.05164       -0.27689        0.72803
N         -3.77040       -0.96307        1.21007
C         -3.61924        0.90598        0.38181
C         -2.73210        1.61948       -0.29614
C         -1.51364        0.98721       -0.37116
C         -0.29144        1.63882       -0.82945
N         -0.37870        2.66059       -1.24981
C          0.94751        1.38177       -0.13102
C          1.86034        2.40484        0.24617
N          2.94932        1.89159        0.93567
C          2.75293        0.55246        0.96360
N          3.73702        0.37726        1.43378
C          1.50526        0.23053        0.30465
C          1.23878       -1.04861       -0.31029
N          2.20721       -1.39226       -0.74086
H         -1.66350       -2.38246        0.53668
H         -4.78754       -0.99745        1.16014
H         -3.47048       -1.83829        1.63614
H         -4.64082        1.22093        0.58877
H         -2.94982        2.60850       -0.69249
H         -1.36774        2.78781       -1.45916
H          0.12422        3.20427       -1.94951
H          1.86367        3.49834        0.12241
H          3.61712       -0.63343        1.37291
H          4.73740        0.54444        1.53960
H          2.07918       -2.38946       -0.56109
H          2.86929       -1.33873       -1.51521
