33
Coordinates from ORCA-job ./opt_b97-3c_parallel
N         -5.59741       -1.49214       -0.74946
C         -4.51864       -1.16222       -0.58459
C         -3.17737       -0.71688       -0.35319
C         -2.12168       -1.55942       -0.54277
C         -1.04069       -0.77893       -0.21418
C          0.22629       -1.47110       -0.02981
C          1.54325       -0.92044        0.18453
C          2.59686       -1.86853        0.40319
N          2.93879       -2.89804        0.59771
N          3.72204       -1.17262        0.27295
C          3.39788        0.08079       -0.04088
N          4.41571        0.51046       -0.13806
C          1.98811        0.40207       -0.18532
C          1.13177        1.46281       -0.61741
N          1.78336        2.32201       -0.86353
N          0.47981        2.21078        0.27735
C         -0.74608        1.66666        0.63886
N         -0.86709        2.67361        1.08862
C         -1.46068        0.50151        0.14447
C         -2.82939        0.59357        0.09307
N         -3.51989        1.43298        0.31256
H         -2.18736       -2.60404       -0.23881
H          0.17548       -2.55698       -0.06954
H          3.74651       -3.52000        0.55704
H          2.16770       -3.46616        0.94838
H          5.30082       -0.00003       -0.17233
H          4.67629        1.49117       -0.25168
H          1.70292        3.33936       -0.81775
H          2.06411        2.11447       -1.82238
H         -1.80711        2.37287        1.35736
H         -0.80321        3.64371        1.40175
H         -3.76592        2.34338       -0.07649
H         -4.38543        0.89093        0.29561
