26
Coordinates from ORCA-job ./opt_b97-3c_parallel
N         -4.54389        1.98546        0.40418
C         -3.67075        1.26035        0.27220
C         -2.56467        0.37683        0.07628
C         -2.78814       -1.00990       -0.18061
C         -1.52374       -1.65940       -0.31643
C         -1.44610       -3.07178       -0.52123
N         -1.40378       -4.20546       -0.65809
C         -0.55324       -0.69836       -0.16504
N          0.70753       -0.96814       -0.11395
C          1.93224       -0.57834       -0.01713
C          3.00050       -1.40819        0.41025
C          4.17473       -0.59106        0.36805
N          3.83513        0.68239       -0.06680
C          2.51302        0.62427       -0.27231
C          1.65725        1.57645       -0.73708
C          0.73236        2.20750        0.04388
N          1.05559        3.24113        0.25880
C         -0.63753        1.82010        0.30902
C         -1.20353        0.57311        0.05821
H         -3.75760       -1.49609       -0.23267
H          2.94107       -2.45128        0.70345
H          5.09048       -1.11847        0.67413
H          1.66559        1.78808       -1.80467
H          0.43466        4.04801        0.26508
H          1.99748        3.58983        0.42939
H         -1.27784        2.61803        0.67826
