26
Coordinates from ORCA-job ./opt_b97-3c_parallel
N          1.50354        4.06894        0.06706
C          1.66804        2.93858        0.08629
C          1.82020        1.51397        0.09525
C          3.08690        1.00246        0.17683
C          2.85777       -0.34752        0.09978
C          4.07433       -1.10000        0.12488
N          4.80246       -1.96097       -0.06896
C          1.52185       -0.66530        0.04360
N          1.14451       -1.98833       -0.01340
C         -0.19130       -2.21273        0.01268
C         -1.53246       -2.21531        0.05282
C         -2.22978       -1.05575       -0.01809
N         -3.60406       -1.03393       -0.00837
C         -3.99693        0.29151       -0.06902
N         -5.10010        0.33222       -0.03696
C         -2.91966        1.13634       -0.16585
C         -1.83131        0.31679       -0.07453
C         -0.58370        0.94514       -0.03865
C          0.75876        0.54840        0.03558
H          3.92687        1.47611       -0.32945
H          0.21529       -3.23492       -0.04983
H         -2.06046       -3.16700        0.03223
H         -5.63620        1.19978       -0.02235
H         -5.78737       -0.42105       -0.01265
H         -2.93743        2.13708        0.26103
H         -0.69127        2.02451       -0.06621
