30
Coordinates from ORCA-job ./opt_b97-3c_parallel
N         -4.00178        2.72037        0.50339
C         -3.44888        1.73598        0.33146
C         -2.71191        0.52891        0.11191
C         -3.24104       -0.78488        0.33706
N         -4.21857       -1.15658        0.69569
C         -2.39889       -1.83978        0.08028
C         -1.32289       -1.09533       -0.32320
C         -0.21989       -1.76475       -0.77109
C          0.90619       -2.02387       -0.03694
N          0.80083       -3.11737        0.09843
C          2.00521       -1.12560        0.27496
C          3.22251       -1.64469        0.82546
N          4.21548       -2.02099        1.24666
C          1.89655        0.30246        0.03117
N          2.82343        1.18677        0.22904
C          2.37130        2.30700       -0.24225
N          3.17483        3.06782       -0.22972
C          1.01527        2.34848       -0.41145
C          0.78530        1.00192       -0.36554
N         -0.45579        1.06168       -0.72468
C         -1.44182        0.32327       -0.33430
H         -4.85514       -0.36203        0.65873
H         -4.79557       -1.99424        0.63419
H         -2.72218       -2.70576       -0.49815
H         -0.19134       -1.98824       -1.83846
H          1.65205       -3.66991        0.19902
H          0.02847       -3.73667        0.34239
H          4.18822        2.96383       -0.17088
H          3.00114        4.07144       -0.29180
H          0.42169        3.05857        0.17016
