29
Coordinates from ORCA-job ./opt_b97-3c_parallel
N          5.37769        1.38461        0.51574
C          4.29459        1.05469        0.36483
C          2.92378        0.67946        0.17739
C          1.95412        1.64060        0.18636
C          0.80975        0.90592        0.00483
C         -0.44318        1.63611       -0.10847
C         -1.77640        1.09657       -0.21155
C         -2.84453        1.92992       -0.34744
N         -3.85864        1.11809       -0.15228
C         -3.56590       -0.20986        0.06081
N         -4.63832       -0.46238        0.17054
C         -2.20259       -0.19052       -0.06994
C         -1.84191       -1.31907        0.60030
N         -1.03079       -1.57130       -0.37991
C          0.25915       -1.57924       -0.40285
N          0.25517       -2.66470       -0.61100
C          1.11367       -0.44414       -0.13543
C          2.46372       -0.65642       -0.03537
N          3.11339       -1.55159       -0.08270
H          2.10617        2.58424       -0.33438
H         -0.36652        2.72003       -0.10016
H         -2.92154        3.01084       -0.54244
H         -4.72159       -1.47805        0.19811
H         -5.57438       -0.09523        0.33916
H         -2.03517       -2.31538        1.02669
H          0.16009       -3.67071       -0.73921
H          1.16145       -2.40904       -1.00115
H          2.96182       -2.50429        0.24341
H          4.08064       -1.31817        0.13867
