29
Coordinates from ORCA-job ./opt_b97-3c_parallel
N         -5.63675        1.17036       -0.69929
C         -4.52813        0.92614       -0.57616
C         -3.14084        0.64240       -0.38769
C         -2.19729        1.67647       -0.14889
C         -0.99130        0.95621        0.00598
C          0.20893        1.69965        0.32658
C          1.53569        1.13863        0.21855
C          2.63895        2.00815        0.49620
N          3.10554        2.95010        0.82710
N          3.30757        1.21179        0.13467
C          3.20374        0.29588       -0.46964
C          1.83191       -0.12162       -0.40409
C          1.76072       -1.52585       -0.71072
C          0.57271       -2.19311       -0.25128
C          0.37498       -3.58854       -0.49615
N          0.23654       -4.71081       -0.66230
C         -0.34416       -1.34244        0.46882
N         -0.54441       -1.55389        1.53638
C         -1.27305       -0.39407       -0.09270
C         -2.59407       -0.61326       -0.40977
H         -2.36428        2.74724       -0.08036
H          0.11808        2.75670        0.55782
H          3.79975        3.38001        0.21968
H          2.27471        3.53615        0.79572
H          4.22225        0.09882       -0.83705
H          2.52083       -2.08434       -1.24953
H         -1.45337       -1.25418        1.88347
H         -0.49886       -2.56365        1.66241
H         -3.13420       -1.46754       -0.00869
