31
Coordinates from ORCA-job ./opt_b97-3c_parallel
N         -4.40399       -1.29953        1.59243
C         -3.43267       -1.00650        1.06604
C         -2.22975       -0.64037        0.35987
C         -1.81406       -1.43789       -0.77667
N         -2.42549       -2.23144       -1.25440
C         -0.58416       -2.07702       -0.70728
C          0.53063       -1.48304       -0.03206
C          1.66347       -2.28312        0.27681
C          2.80172       -1.62323        0.65772
N          3.94215       -2.32954        0.59982
C          2.35542       -0.34772        0.39653
C          3.29981        0.69973        0.64940
N          4.05669        1.52438        0.88680
C          0.96589       -0.19831        0.03100
C          0.43701        0.96774       -0.65523
C          1.30678        1.91852       -1.28622
N          1.97378        2.67866       -1.81862
C         -0.92048        1.38197       -0.36047
C         -1.32170        2.68768       -0.41201
C         -2.36182        2.82651        0.38565
C         -2.69433        1.66312        0.91060
C         -1.86129        0.70255        0.39258
H         -3.40860       -1.98415       -1.15270
H         -2.37333       -3.24593       -1.18010
H         -0.40702       -3.09156       -1.08238
H          1.63086       -3.36288        0.16136
H          3.98442       -3.27196        0.98333
H          4.83383       -1.87309        0.78575
H         -0.84908        3.49350       -0.96945
H         -2.86896        3.76719        0.58673
H         -3.50642        1.52131        1.62071
