27
Coordinates from ORCA-job ./opt_b97-3c_parallel
N         -5.53983        0.37094       -0.79234
C         -4.40779        0.32747       -0.64096
C         -2.99817        0.29303       -0.41502
C         -2.23836        1.48294       -0.26281
C         -0.93645        0.98381       -0.03651
C          0.12475        1.93335        0.22875
C          1.52337        1.57752        0.18674
C          2.47338        2.61893        0.42704
N          3.31598        1.95874        0.17129
C          3.28309        1.03727       -0.42883
C          2.02692        0.34719       -0.35515
C          2.09847       -1.04686       -0.70070
C          1.03079       -1.85743       -0.18066
C          0.97071       -3.26126       -0.44466
N          0.94050       -4.38921       -0.62665
C          0.06817       -1.13389        0.61326
N         -0.04793       -1.30367        1.69964
C         -0.99686       -0.39761       -0.01790
C         -2.25858       -0.85628       -0.31546
H         -2.57725        2.51421       -0.29446
H         -0.13488        2.97743        0.37619
H          2.57606        3.67259        0.72703
H          4.29116        0.84199       -0.82545
H          2.87966       -1.49674       -1.30592
H         -0.93576       -1.05320        2.12994
H          0.11774       -2.28657        1.90874
H         -2.66219       -1.74265        0.16851
