31
Coordinates from ORCA-job ./opt_b97-3c_parallel
N         -3.25251        3.05652        1.16415
C         -2.44520        2.34511        0.78088
C         -1.46975        1.40839        0.30407
C         -0.54735        1.98315       -0.50588
N         -0.22448        2.51552       -1.69377
C          0.46583        2.09445        0.38800
C          1.47040        1.08793        0.46926
C          2.78238        1.37230        0.93014
C          3.62162        0.39052        0.49618
N          4.94327        0.31485        0.69952
C          2.91346       -0.48582       -0.21589
C          1.58736       -0.14385       -0.24060
C          0.51934       -0.97273       -0.79408
C          0.91840       -2.12957       -1.54373
N          1.19953       -3.07343       -2.12391
C         -0.86259       -0.95318       -0.30623
N         -1.64051       -2.08361       -0.40535
C         -2.81831       -1.78838        0.26078
N         -3.43350       -2.70151        0.16489
C         -2.84430       -0.54748        0.84931
C         -1.67323       -0.00945        0.39946
H          0.64563        3.03872       -1.79157
H         -0.93069        3.01142       -2.23661
H          0.65865        3.03655        0.89575
H          3.07295        2.33375        1.34424
H          5.52675       -0.24893        0.08249
H          5.47292        1.14816        0.95176
H          3.34610       -1.36252       -0.69494
H         -3.14928       -3.67665        0.06618
H         -4.45307       -2.70209        0.12414
H         -3.15684       -0.42073        1.88422
