33
Coordinates from ORCA-job ./opt_b97-3c_parallel
N          5.40302       -1.81457        0.69397
C          4.39695       -1.32573        0.46345
C          3.11676       -0.74002        0.20173
C          1.96721       -1.58875        0.08556
C          0.82465       -0.75376       -0.14496
C         -0.49307       -1.36099       -0.31889
N         -0.56419       -2.45530       -0.48727
C         -1.72182       -0.60216       -0.12013
C         -2.94049       -1.20441       -0.28375
N         -3.57124       -2.07100       -0.56664
N         -3.92225       -0.43134        0.17246
C         -3.24790        0.70172        0.61957
N         -4.14243        1.18588        1.07016
C         -1.88808        0.66345        0.37086
C         -1.70273        1.88647       -0.19909
N         -0.62704        1.84897       -0.91642
C          0.62926        1.75829       -0.63308
N          0.82513        2.82146       -0.85626
C          1.29036        0.54239       -0.22309
C          2.71161        0.56788        0.00015
N          3.44256        1.39758        0.00257
H          1.97442       -2.66991        0.19046
H         -0.24918       -3.16144        0.18009
H          0.10697       -2.47776       -1.25659
H         -2.73820       -2.58698       -0.86081
H         -4.36248       -2.66469       -0.82220
H         -5.16198        1.25142        1.07160
H         -3.82646        1.96049        1.65742
H         -1.61971        2.84249        0.34203
H          0.77993        3.75004       -1.27336
H          1.72462        2.42759       -1.13038
H          3.50965        2.41011       -0.08752
H          4.39118        1.06574        0.17946
