28
Coordinates from ORCA-job ./opt_b97-3c_parallel
N          4.47874        3.17774        0.99166
C          3.87632        2.23998        0.73928
C          3.12743        1.07632        0.37829
C          3.68484       -0.16917        0.32614
C          2.63208       -0.94172       -0.10683
C          2.89768       -2.34205       -0.22098
N          3.40522       -3.34942       -0.03457
C          1.46350       -0.25790       -0.36030
N          0.30555       -0.67695       -0.76295
C         -0.90292       -0.82787       -0.32976
C         -1.70208       -1.91258       -0.02996
C         -1.34998       -3.29401       -0.12794
N         -1.07313       -4.40172       -0.17500
C         -2.97708       -1.63081        0.41762
C         -2.96204       -0.26347        0.42992
C         -4.21759        0.26551        0.86779
N         -5.12707        0.63421        0.28054
C         -1.73331        0.27414       -0.01591
C         -1.40197        1.66715       -0.14499
C         -2.14305        2.85648        0.14101
N         -3.01180        3.59916        0.14034
C         -0.25951        2.16281       -0.70562
C          0.96965        2.22877       -0.11465
C          1.76822        1.09792       -0.04036
H          4.68507       -0.31145       -0.07912
H         -3.83234       -2.17929        0.02399
H         -0.31099        2.45577       -1.75249
H          1.35476        3.19734        0.18891
