33
Coordinates from ORCA-job ./opt_b97-3c_parallel
N         -0.00163        4.71493        0.02007
C         -0.00187        3.57220        0.00802
C         -0.00129        2.12303        0.00702
C         -1.30351        1.60088       -0.08166
C         -1.88285        0.31550       -0.04101
C         -3.28704        0.23080       -0.08176
N         -4.18481        1.25735       -0.20322
C         -3.54255       -1.17480        0.07366
C         -2.36808       -1.99548        0.18478
N         -2.25555       -3.34843        0.35843
C         -1.32880       -1.05309        0.07284
C          0.00018       -1.48309        0.00162
C          1.32879       -1.05173       -0.06812
C          2.36834       -1.99336       -0.18436
N          2.25653       -3.34542       -0.36447
C          3.54266       -1.17206       -0.07049
C          3.28572        0.23314        0.09053
N          4.18277        1.25917        0.21778
C          1.88180        0.31695        0.05066
C          1.30094        1.60166        0.09617
H         -2.04077        2.39614       -0.16303
H         -5.15646        1.02832       -0.38254
H         -3.84942        2.16542       -0.50333
H         -4.54723       -1.58562        0.10307
H         -1.36946       -3.71764        0.68337
H         -3.09384       -3.86796        0.59667
H          0.00061       -2.56353       -0.00110
H          3.09475       -3.86367       -0.60427
H          1.37015       -3.71374       -0.69077
H          4.54691       -1.58222       -0.10218
H          3.84633        2.16569        0.52213
H          5.15439        1.03029        0.39624
H          2.03796        2.39735        0.17663
