31
Coordinates from ORCA-job ./opt_b97-3c_parallel
N          5.51068        1.05226       -0.00470
C          4.54458        0.44444       -0.05646
C          3.31659       -0.29133       -0.08606
C          3.33952       -1.65198       -0.19119
C          2.00173       -1.94947       -0.11651
C          1.65684       -3.33698       -0.13500
N          1.56215       -4.47467       -0.08036
C          1.16282       -0.86018       -0.04554
N         -0.10696       -0.77034        0.03357
C         -1.26644       -0.23162        0.04035
C         -2.44885       -1.04619        0.07024
C         -2.43966       -2.48014        0.07142
N         -2.46632       -3.62283        0.05900
C         -3.55261       -0.25816        0.08324
N         -4.85720       -0.57405        0.14858
C         -3.11109        0.98760        0.04242
C         -1.73641        1.05337        0.02573
C         -0.87020        2.23799        0.01912
C         -1.75173        3.38624        0.00674
N         -2.29280        4.38444       -0.12889
C          0.53798        2.37980        0.03921
N          0.92244        3.42568        0.05814
C          1.73661        1.63218        0.03135
C          2.00433        0.26990       -0.03181
H          4.09161       -2.25117        0.31843
H         -5.17919       -1.50884       -0.09692
H         -5.56991        0.09848       -0.12888
H         -3.78380        1.84267        0.04884
H          0.26685        4.20505        0.02386
H          1.85252        3.83559       -0.00501
H          2.67998        2.18915        0.05648
