28
Coordinates from ORCA-job ./opt_b97-3c_parallel
N          5.23266       -0.16283       -0.69260
C          4.09899       -0.09381       -0.56539
C          2.68352       -0.00756       -0.36439
C          2.11354        1.22727       -0.24559
C          0.81189        0.88032        0.00530
C         -0.21093        1.65785        0.63145
N         -0.12690        2.34848        1.48599
C         -0.83323        2.07555       -0.58687
C         -2.13403        1.52204       -0.82842
C         -2.64394        0.36427       -0.12770
C         -3.98608        0.12369       -0.08654
N         -4.10877       -1.10876        0.38463
C         -2.89637       -1.72337        0.63243
C         -1.88774       -0.78238        0.30236
C         -0.56655       -1.20458        0.24400
C          0.57736       -0.46953       -0.01683
C          1.81603       -1.14030       -0.24477
N          2.09834       -2.20888       -0.30268
H          2.34819        2.02158       -0.95028
H          0.83464        2.25234        1.80678
H         -0.31523        3.34562        1.40344
H         -0.53935        2.96660       -1.13451
H         -2.81462        2.10002       -1.44551
H         -5.04717        0.39504       -0.19204
H         -3.07059       -2.75884        0.96054
H         -0.42395       -2.26941        0.40014
H          3.09184       -2.38466       -0.16589
H          1.62325       -2.50584        0.54705
