30
Coordinates from ORCA-job ./opt_b97-3c_parallel
N         -5.62262       -2.12545        0.00978
C         -4.66422       -1.50336        0.03978
C         -3.46523       -0.71732        0.03861
C         -2.20432       -1.38612        0.08497
C         -1.17627       -0.39671        0.06823
C          0.14390       -0.94163        0.10109
C          1.42213       -0.29481        0.02304
C          2.52130       -1.11073        0.00261
N          2.78314       -2.18479        0.03031
C          3.59232       -0.17844       -0.10050
C          5.02192       -0.24892       -0.19817
N          6.05033       -0.74043       -0.11457
C          3.26736        1.14732       -0.13490
C          1.89596        1.06068       -0.05581
C          1.29364        2.30542       -0.03355
C         -0.05029        2.80783        0.02954
C         -1.35019        2.20549        0.02743
C         -1.77259        0.83162        0.02351
C         -3.20354        0.64006        0.00332
N         -4.08729        1.30711       -0.03097
H         -2.06266       -2.46240        0.11938
H          0.18203       -2.02641        0.14952
H          2.09083       -2.88245       -0.23328
H          3.69997       -2.60950       -0.09923
H          3.81827        1.87947        0.45584
H          1.98754        3.14219       -0.06799
H         -0.09354        3.89277        0.04442
H         -2.14682        2.94236        0.03312
H         -5.04907        0.98603       -0.12961
H         -4.06654        2.27829       -0.33482
