31
Coordinates from ORCA-job ./opt_b97-3c_parallel
N          5.56783       -0.85211       -1.18292
C          4.46922       -0.62342       -0.96909
C          3.08880       -0.37286       -0.67190
C          2.13315       -1.24970       -1.08480
C          0.99408       -0.71944       -0.53086
C         -0.12270       -1.63397       -0.35118
C         -1.42933       -1.30795        0.15109
C         -2.35421       -2.22199        0.56361
N         -2.57516       -3.28445        0.77184
N         -3.54393       -1.67197        0.84949
C         -3.40359       -0.31570        0.55207
C         -2.07195       -0.05719        0.07771
C         -1.60738        1.08013       -0.49602
N         -2.22007        1.40821       -1.64514
C         -0.94117        1.59921        0.56743
C         -1.66582        2.63360        1.24321
N         -2.27757        3.43014        1.78700
C          0.45335        1.39375        0.81972
C          1.24488        0.50010        0.10665
C          2.59730        0.74272        0.06797
N          3.24476        1.54608        0.47117
H          2.32707       -2.32074       -1.08300
H          0.06476       -2.68169       -0.56823
H         -1.99377       -4.03262        0.39571
H         -3.34044       -3.74554        1.26495
H         -4.13877        0.50379        0.57609
H         -2.17696        2.36994       -1.98366
H         -2.15056        0.80099       -2.46045
H          0.90719        2.12976        1.47892
H          3.24257        2.55904        0.57977
H          4.22312        1.26238        0.42873
