28
Coordinates from ORCA-job ./opt_b97-3c_parallel
N          5.51895       -1.26120       -0.31930
C          4.43450       -0.90159       -0.26517
C          3.07211       -0.48322       -0.17069
C          2.01866       -1.41652        0.01559
C          0.87888       -0.58303        0.09004
C         -0.39814       -1.22764        0.32414
C         -1.68252       -0.57700        0.20070
C         -2.84340       -1.39373        0.39093
N         -3.36738       -2.33013        0.64436
N         -3.49071       -0.55566        0.09096
C         -3.30020        0.46703       -0.27361
C         -1.89202        0.74078       -0.32762
C         -1.71102        2.11114       -0.72512
C         -0.44636        2.67877       -0.35318
C          0.41789        1.79501        0.38579
N          0.66024        2.34002        1.31573
C          1.29692        0.73149       -0.01845
C          2.65386        0.81729       -0.23080
H          2.07787       -2.49706        0.09930
H         -0.39592       -2.29509        0.52631
H         -2.58285       -2.95628        0.80882
H         -4.12258       -2.88968        0.25465
H         -4.29382        0.71870       -0.67437
H         -2.43358        2.70831       -1.27268
H         -0.21391        3.70314       -0.63229
H          0.68195        3.35695        1.35772
H          1.56303        2.01259        1.65360
H          3.05794        1.50101       -0.97466
