33
Coordinates from ORCA-job ./opt_b97-3c_parallel
N          5.84115       -0.69885       -0.62335
C          4.72673       -0.55156       -0.41848
C          3.32647       -0.39452       -0.19852
C          2.73568        0.87872        0.01354
C          1.37618        0.53021        0.19250
C          0.44483        1.43662        0.79426
N          0.28435        1.56188        1.87844
C         -0.00893        1.96193       -0.45860
C          0.44252        3.24605       -0.89834
N          0.76706        4.28578       -1.24015
C         -1.23121        1.40291       -0.96350
C         -1.84250        0.21521       -0.40242
C         -3.17891       -0.01369       -0.57967
N         -4.11724        0.38178       -1.01716
N         -3.61261       -1.15334       -0.01816
C         -2.48478       -1.75622        0.53832
N         -2.92006       -2.70060        0.91886
C         -1.31684       -0.93949        0.28912
C         -0.03054       -1.46139        0.48128
N          0.10419       -2.51687        0.79430
C          1.22847       -0.82838        0.13015
C          2.44443       -1.43843       -0.09838
H          3.21465        1.85045        0.09025
H          1.14312        1.24479        2.32944
H          0.23388        2.56559        2.05572
H         -1.80374        2.00838       -1.66036
H         -5.13056        0.29104       -0.92366
H         -3.98102        1.04547       -1.78162
H         -1.96589       -2.97213        1.17085
H         -3.50919       -3.49060        1.18655
H          0.65513       -2.21055        1.59908
H          0.67003       -3.23083        0.33185
H          2.52834       -2.29723       -0.76218
