27
Coordinates from ORCA-job ./opt_b97-3c_parallel
N         -4.75373       -2.59114       -0.00612
C         -4.40103       -1.50457       -0.00259
C         -3.21653       -0.69999       -0.00068
C         -3.61272        0.67530        0.00099
C         -2.41602        1.45325        0.00284
C         -2.69284        2.85655        0.00455
N         -2.17181        3.87387        0.00652
C         -1.35292        0.58211        0.00190
N         -0.10952        1.18340        0.00364
C          1.18454        0.71287        0.00349
N          2.15828        1.69856        0.00500
C          3.40491        1.09568        0.00415
N          4.27062        1.78863        0.00558
C          3.22233       -0.32423        0.00186
C          4.29010       -1.27321        0.00042
N          5.17157       -2.00017       -0.00086
C          1.80730       -0.57217        0.00119
C          1.36026       -1.93972       -0.00108
C          0.04656       -2.51144       -0.00258
C         -1.23344       -2.00851       -0.00206
C         -1.83853       -0.76919       -0.00020
H         -4.62985        1.05816        0.00072
H          5.20320        1.36837        0.00549
H          4.43341        2.79697        0.00688
H          2.13663       -2.69840       -0.00223
H          0.10112       -3.59777       -0.00451
H         -1.95263       -2.82400       -0.00382
