30
Coordinates from ORCA-job ./opt_b97-3c_parallel
N          3.66678       -2.70744        1.61677
C          3.17906       -1.78763        1.14549
C          2.55534       -0.65963        0.51963
C          3.11335        0.40239       -0.15818
N          4.16248        0.66893       -0.37889
C          2.20891        1.25483       -0.74822
C          1.00247        0.72896       -0.36235
C         -0.23962        1.47307       -0.39849
C         -0.23817        2.80153       -0.94771
N         -0.20298        3.85934       -1.38002
C         -1.25985        1.09192        0.55530
N         -2.01652        2.00196        1.13065
C         -3.25726        1.69442        1.00597
C         -3.42436        0.56138        0.38588
C         -2.16931        0.12884        0.12390
C         -1.79940       -0.98714       -0.71498
C         -2.84888       -1.50136       -1.55402
N         -3.76787       -2.05183       -1.95460
C         -0.71520       -1.79350       -0.38420
N         -0.57720       -2.85728       -0.66714
C          0.20369       -1.51565        0.69965
C          1.14937       -0.46908        0.39293
H          4.81465       -0.09674       -0.21705
H          4.71979        1.51426       -0.48660
H          2.38210        2.33086       -0.76164
H         -4.11194        2.28388        1.37115
H         -4.36650        0.06514        0.16465
H          0.04683       -3.65994       -0.73107
H         -1.51560       -3.22784       -0.52317
H          0.65494       -2.36881        1.20485
