25
Coordinates from ORCA-job ./opt_b97-3c_parallel
N         -4.47107       -2.81598        0.23257
C         -3.78624       -1.90096        0.21690
C         -2.92266       -0.76215        0.15362
C         -3.43806        0.50123        0.19859
C         -2.29812        1.25829        0.07694
C         -2.50468        2.67294        0.07423
N         -2.78487        3.76775       -0.09562
C         -1.12700        0.54676       -0.04388
N          0.07834        0.93368       -0.22829
C          1.34368        0.93872       -0.04819
C          2.18063        2.01125        0.01439
C          3.43954        1.59563        0.07772
C          3.47524        0.23434        0.06363
C          4.62552       -0.61512        0.07232
N          5.56524       -1.26595        0.07052
C          2.12892       -0.24350       -0.00628
N          1.81133       -1.59383       -0.09444
C          0.58852       -2.26754       -0.13980
C         -0.76907       -1.98581       -0.05401
C         -1.50271       -0.81195        0.02392
H         -4.33834        0.75319       -0.35848
H          1.86493        3.05184        0.00667
H          4.31134        2.24330        0.12837
H          1.06082       -3.25955       -0.19356
H         -1.36423       -2.89221       -0.04317
