35
Coordinates from ORCA-job ./opt_b97-3c_parallel
N         -1.15492       -4.51741       -0.59793
C         -0.74022       -3.47175       -0.40103
C         -0.19082       -2.17729       -0.13095
C         -0.87554       -1.47202        0.79602
C         -1.69796       -0.54718        0.25055
C         -3.12240       -0.63385        0.09701
N         -3.70932       -1.55056        0.29488
C         -3.53620        0.69973       -0.27610
C         -4.91861        1.03430       -0.47301
N         -6.01836        1.32075       -0.59815
C         -2.43490        1.53437       -0.33397
N         -2.48992        2.61622       -0.56403
C         -1.29526        0.72028       -0.03233
C          0.00609        1.33783        0.08617
C          1.31129        0.68279        0.15596
C          2.38017        1.53365        0.35001
N          2.47019        2.61665        0.57047
C          3.58043        0.75496        0.16833
C          4.92935        1.24873        0.25829
N          5.99517        1.66040        0.30260
C          3.20551       -0.59499       -0.16895
N          3.95366       -1.38621       -0.37585
C          1.76655       -0.59694       -0.14026
C          1.14056       -1.84760       -0.52113
H         -1.05368       -1.86627        1.79398
H         -4.66942       -1.23003        0.17985
H         -3.73158       -2.56791        0.25767
H         -1.76688        3.25682       -0.88519
H         -3.33536        3.16830       -0.42748
H          0.00657        2.42317        0.08351
H          1.73480        3.25395        0.86944
H          3.31092        3.17559        0.43353
H          4.91149       -1.04722       -0.29629
H          3.99889       -2.40209       -0.32591
H          1.74161       -2.63786       -0.96338
