27
Coordinates from ORCA-job ./opt_b97-3c_parallel
N         -4.37268       -2.61367       -0.94415
C         -3.73607       -1.71485       -0.64156
C         -2.91867       -0.61676       -0.23223
C         -3.35737        0.66936       -0.09558
C         -2.23456        1.33489        0.34700
C         -2.35374        2.74729        0.54535
N         -1.66501        3.53006        0.07518
C         -1.11754        0.54751        0.53702
N          0.09292        0.79494        0.93219
C          1.30756        0.83338        0.48740
C          2.04011        1.97721        0.36954
C          3.22310        1.50114       -0.15211
N          4.23326        1.87785       -0.39722
N          3.25451        0.13711       -0.40343
C          2.02612       -0.29913        0.01378
C          1.63088       -1.62657       -0.00769
C          2.28325       -2.82436       -0.44297
N          3.39323       -3.08899       -0.37511
C          0.48728       -2.03096        0.62290
C         -0.78322       -1.96186        0.12891
C         -1.55567       -0.74357        0.14389
H         -4.02961        1.11242       -0.82794
H          1.58640        2.89086       -0.01136
H          4.53233        2.85246       -0.36099
H          5.08997        1.32332       -0.39766
H          0.59224       -2.41696        1.63534
H         -1.27773       -2.86676       -0.21126
