25
Coordinates from ORCA-job ./opt_b97-3c_parallel
N          1.90211       -3.76624        0.00921
C          1.36229       -2.76077        0.00653
C          0.74031       -1.46535        0.00323
C         -0.65249       -1.68968        0.00195
C         -1.81903       -0.91207       -0.00068
C         -2.98112       -1.76018       -0.00037
N         -3.88116       -2.46276        0.00082
C         -2.00273        0.51978       -0.00364
N         -3.25305        1.11014       -0.00541
C         -3.35328        2.42863       -0.00667
C         -2.05051        2.67471       -0.00574
C         -1.24758        1.62979       -0.00420
N          0.04478        1.53005       -0.00324
C          1.27528        1.06085       -0.00171
N          2.42935        1.80760       -0.00284
C          3.49211        0.90545       -0.00021
N          4.55058        1.23122       -0.00090
C          2.98799       -0.37372        0.00429
C          1.62475       -0.30281        0.00172
H         -0.90510       -2.75539        0.00359
H         -4.38086        2.82470       -0.00784
H         -1.66800        3.69265       -0.00618
H          4.91724        2.18479       -0.00192
H          5.37809        0.63075        0.00060
H          3.58690       -1.28330        0.00260
