31
Coordinates from ORCA-job ./opt_b97-3c_parallel
N         -5.52700       -2.43070        0.97200
C         -4.50809       -1.94372        0.78937
C         -3.25186       -1.32241        0.51820
C         -2.05249       -1.96107        0.37960
C         -1.17244       -0.95917        0.03199
C         -0.12864       -1.24977       -0.91569
C          1.20811       -0.83975       -0.58484
C          2.28669       -1.63904       -0.84055
C          3.26716       -1.05153       -0.07147
C          4.47532       -1.79352       -0.28767
N          5.48133       -2.26716       -0.02113
C          2.87774        0.07130        0.63161
N          3.60734        0.65704        1.21982
C          1.50197        0.21865        0.31041
C          0.77508        1.41024        0.65452
C         -0.03912        1.97021       -0.39265
C          0.26199        3.33173       -0.75729
N          0.48392        4.42309       -1.01401
C         -1.34168        1.50555       -0.59069
N         -2.14498        2.13658       -1.03378
C         -1.83030        0.25290       -0.03460
C         -3.15321        0.06521        0.26275
H         -2.00175       -2.94598       -0.08078
H         -0.16864       -2.22413       -1.39424
H          2.16715       -2.72297       -0.85705
H          4.56544        0.38938        0.99998
H          3.60639        1.66817        1.33853
H          1.38417        2.12135        1.20542
H         -2.06380        3.12415       -0.79749
H         -3.11233        1.97867       -1.30932
H         -3.98282        0.76646        0.25305
