31
Coordinates from ORCA-job ./opt_b97-3c_parallel
N          3.21790        3.16145        0.65300
C          2.32633        2.51300        0.35467
C          1.25122        1.64153       -0.01484
C         -0.04355        1.78859        0.57693
C         -1.12343        1.05083       -0.02776
C         -2.33252        1.65194       -0.18860
C         -2.95925        0.44142       -0.29158
C         -4.28181        0.79254       -0.72349
N         -5.34654        1.04182       -1.05109
C         -2.47213       -0.83529       -0.20468
N         -3.20177       -1.96463       -0.21582
C         -1.19156       -0.39522       -0.01163
C         -0.18650       -1.27609        0.59550
N         -0.43962       -2.25227        1.05753
C          1.24997       -1.18205        0.35698
C          2.20159       -2.15212        0.81847
N          3.38977       -1.78969        0.31040
C          3.32075       -0.68398       -0.44818
N          4.36179       -0.52386       -0.77981
C          1.95168       -0.25461       -0.46070
C          1.46478        0.83963       -1.09661
H         -0.24223        2.72392        1.09482
H         -2.68021        2.42033        0.50057
H         -2.78554       -2.85220       -0.49127
H         -4.16690       -1.94997       -0.54439
H         -1.43889       -2.06785        1.14725
H         -0.25471       -3.04736        1.66735
H          2.22347       -3.07444        1.41924
H          5.11330       -1.19149       -0.95099
H          4.74219        0.39525       -1.00548
H          1.92359        1.22613       -2.00491
