27
Coordinates from ORCA-job ./opt_b97-3c_parallel
N          4.94502        1.67977        0.05333
C          4.02227        1.00664        0.09388
C          2.86124        0.16987        0.10086
C          3.01169       -1.18512        0.17154
C          1.70519       -1.59915        0.10264
C          1.54296       -3.01982        0.12339
N          1.27417       -4.12354       -0.00373
C          0.77489       -0.58902        0.02015
N         -0.49408       -0.69983       -0.08896
C         -1.63957       -0.14388       -0.01104
C         -2.83162       -0.92526        0.03736
C         -3.92963       -0.12930        0.08655
N         -5.22685       -0.46834        0.12948
C         -3.47600        1.11579        0.07728
C         -2.10984        1.13268        0.02338
C         -1.43361        2.33346       -0.01637
C         -0.09229        2.69234       -0.06125
C          1.17246        1.97234       -0.03567
C          1.50766        0.62328        0.02918
H          3.79539       -1.69113       -0.38939
H         -2.82740       -2.01095        0.01908
H         -5.93871        0.19189       -0.17750
H         -5.52053       -1.40175       -0.15101
H         -4.10756        2.00133        0.10568
H         -2.08844        3.20008       -0.01322
H          0.06197        3.76651       -0.09773
H          2.00968        2.66175       -0.05026
