29
Coordinates from ORCA-job ./opt_b97-3c_parallel
N         -5.56500        1.35440        0.09726
C         -4.49551        0.95608        0.05873
C         -3.14073        0.49668        0.00580
C         -2.06389        1.43853        0.13912
C         -0.84742        0.70419        0.04384
C          0.39962        1.43804        0.09590
C          1.70598        0.82972       -0.02563
C          2.77292        1.67649       -0.09118
N          3.20124        2.69636       -0.10032
N          3.90906        1.01654       -0.24968
C          3.44039       -0.28630       -0.27582
C          2.08622       -0.48200       -0.11292
C          1.75718       -1.76581        0.22545
N          2.17322       -2.59484        0.82840
N          0.77620       -1.95694       -0.24604
C         -0.31066       -1.75037       -0.27079
C         -1.17507       -0.61549       -0.13355
C         -2.60167       -0.76829       -0.16606
N         -3.19877       -1.68883       -0.30056
H         -2.16392        2.51119        0.27680
H          0.34113        2.51854        0.19124
H          4.08836        3.19958       -0.08549
H          2.50258        3.36700       -0.41846
H          4.23701       -1.03765       -0.39272
H          1.71645       -3.49141        0.66316
H          2.78679       -2.73036        1.63010
H         -0.69357       -2.77253       -0.41695
H         -3.19315       -2.70628       -0.34482
H         -4.16869       -1.40103       -0.42631
