29
Coordinates from ORCA-job ./opt_b97-3c_parallel
N          0.74061        4.29238       -0.75773
C          0.65407        3.18046       -0.51106
C          0.57834        1.79206       -0.17621
C         -0.46097        1.51210        0.64261
C         -1.54431        0.90052        0.11627
C         -2.84049        1.44281       -0.12491
C         -3.82176        0.53552       -0.44321
C         -3.06728       -0.60818       -0.32507
N         -3.70473       -1.49294       -0.50733
C         -1.68140       -0.43504       -0.02413
C         -0.82471       -1.50074        0.15870
C          0.61920       -1.44238        0.27389
C          1.33975       -2.66216        0.43701
C          2.70370       -2.57442        0.33477
C          2.85682       -1.24303        0.02715
N          3.92430       -1.00631       -0.13198
C          1.64563       -0.48097        0.00212
C          1.67643        0.90681       -0.40617
H         -0.47557        1.87582        1.66716
H         -3.02829        2.50122        0.02502
H         -4.81063        0.62468        0.00657
H         -4.67495       -1.72016       -0.29821
H         -3.16902       -2.35086       -0.39409
H         -1.24164       -2.50297        0.18058
H          0.81298       -3.60309        0.56195
H          3.25743       -3.35354       -0.18943
H          4.72321       -1.58498        0.12082
H          4.12859       -0.06385        0.19412
H          2.59998        1.32320       -0.79693
