23
Coordinates from ORCA-job ./opt_b97-3c_parallel
N         -1.49811       -4.07811        0.02917
C         -1.54065       -2.93626        0.01266
C         -1.57846       -1.50587        0.02775
C         -2.78845       -0.87413       -0.05551
C         -2.42073        0.44520       -0.15390
C         -3.56576        1.28065       -0.35357
N         -4.44482        1.79024       -0.87647
C         -1.06715        0.64528       -0.03688
N         -0.55016        1.92647       -0.15363
C          0.70919        2.14403        0.33128
N          1.66194        1.63241        1.02342
C          2.42698        0.85675        0.33781
C          3.76098        1.10641        0.20650
C          4.19651       -0.12952       -0.20623
N          3.23049       -1.10360       -0.37929
C          2.07282       -0.45700       -0.05675
C          0.86353       -1.12631       -0.02014
C         -0.43964       -0.64029        0.06519
H         -3.62151       -1.18465        0.57260
H          0.70660        3.21597        0.08278
H          4.11194        2.00730       -0.29114
H          5.15455       -0.61323       -0.44848
H          0.95824       -2.19931       -0.15058
