31
Coordinates from ORCA-job ./opt_b97-3c_parallel
N         -5.30253       -1.46953        0.01247
C         -4.21125       -1.13731       -0.05842
C         -2.84929       -0.70617       -0.18286
C         -1.97674       -1.46242       -0.91801
C         -0.80884       -0.76059       -0.75780
C          0.45505       -1.45406       -0.94975
C          1.63540       -1.13853       -0.17809
C          2.59423       -2.02383        0.18873
C          3.64262       -1.31803        0.58656
C          3.45104       -0.00622        0.48090
N          4.35669        0.91558        0.84344
C          2.20797        0.16287       -0.05955
C          1.96783        1.16937       -0.94431
C          0.83821        1.85846       -0.90989
C         -0.14407        1.56168       -0.00576
N         -0.19895        2.54795        0.49590
C         -1.03600        0.43331       -0.10114
C         -2.32900        0.52218        0.33961
N         -2.93889        1.27224        0.87920
H         -1.99397       -2.54840       -0.85109
H          0.36777       -2.48552       -1.27798
H          2.51072       -3.10778        0.18369
H          4.55821       -1.76757        0.96411
H          5.14775        0.65121        1.42682
H          4.04749        1.84108        1.13434
H          2.71497        1.40461       -1.69846
H          0.67892        2.62414       -1.67322
H          0.14681        3.50498        0.52269
H         -1.13967        2.58057        0.10823
H         -2.73025        2.16561        1.32072
H         -3.95071        1.21641        0.77815
