33
Coordinates from ORCA-job ./opt_b97-3c_parallel
N         -6.10981        0.60220        0.45262
C         -4.98089        0.44651        0.36441
C         -3.56738        0.26932        0.21221
C         -3.08247       -0.97400       -0.07830
C         -1.75047       -0.69540       -0.22794
C         -0.84411       -1.48586       -0.84431
C         -0.07156       -2.20407        0.00235
C         -0.64522       -3.50973        0.19003
N         -1.09637       -4.55370        0.30938
C          1.25833       -1.80725        0.38678
N          1.91862       -2.59292        0.80507
C          1.73320       -0.47062        0.05245
C          3.15053       -0.26241        0.03901
C          3.39620        1.11553       -0.25100
C          4.75027        1.57731       -0.33710
N          5.82375        1.95754       -0.43490
C          2.17036        1.74392       -0.36552
N          2.16944        2.83616       -0.54710
C          1.13295        0.75924       -0.18303
C         -0.21889        1.30002       -0.08935
C         -1.41250        0.60634        0.02080
C         -2.60990        1.32910        0.31056
N         -2.81922        2.39369        0.52837
H         -3.59985       -1.63044       -0.77494
H         -0.91753       -1.72796       -1.90225
H          1.76480       -3.60009        0.78926
H          2.74326       -2.42782        1.37879
H          3.91787       -1.01363        0.20015
H          2.98219        3.45034       -0.53538
H          1.41272        3.35451       -0.98883
H         -0.28869        2.38317       -0.07294
H         -2.22072        2.84644        1.21613
H         -3.74725        2.80215        0.62487
