29
Coordinates from ORCA-job ./opt_b97-3c_parallel
N          3.86169        0.78269       -1.99823
C          2.79403        0.66341       -1.60626
C          1.63407        0.56529       -0.75918
C          1.29080        1.79164       -0.22327
N          1.65064        2.83963       -0.30217
C          0.15208        1.92366        0.66267
C         -1.02784        1.11860        0.44646
C         -2.28742        1.74427        0.67036
C         -3.26345        1.08125       -0.00599
N         -4.56791        1.38672       -0.05556
C         -2.69507        0.08333       -0.67557
C         -1.35032        0.01817       -0.42292
C         -0.62338       -1.24349       -0.45977
C         -1.31466       -2.42290       -0.90400
N         -1.89346       -3.34356       -1.25671
C          0.63823       -1.40433        0.22979
N          1.09427       -2.57293        0.61891
C          2.34722       -2.38110        0.84512
C          2.75494       -1.15677        0.63888
C          1.66121       -0.47203        0.23683
H          1.34458        3.73596       -0.67570
H          2.66895        2.83707       -0.33723
H         -0.02661        2.85842        1.19996
H         -2.38427        2.72952        1.11664
H         -5.25478        0.66666       -0.27058
H         -4.97424        2.01586        0.63430
H         -3.23917       -0.59156       -1.33325
H          2.70250       -3.37341        1.16166
H          3.76372       -0.77197        0.76830
