28
Coordinates from ORCA-job ./opt_b97-3c_parallel
N         -4.55854       -1.64127       -0.48404
C         -4.18300       -0.56118       -0.52958
C         -2.88060       -0.02898       -0.27271
C         -2.93064        1.40161       -0.24501
C         -1.61004        1.87449        0.04661
C         -1.54390        3.29864        0.14105
N         -0.87004        4.18823        0.38477
C         -0.78474        0.78534        0.19543
N          0.44079        0.77699        0.56686
C          1.57216        0.27480        0.24978
C          2.74818        1.07492        0.13851
C          3.83580        0.29465       -0.08266
N          5.12994        0.63436       -0.17438
C          3.38155       -0.94925       -0.14134
C          2.02712       -0.99249        0.03878
N          1.42423       -2.19098        0.10855
C          0.05584       -2.47231        0.21296
N          0.23565       -3.56132        0.26127
C         -1.22158       -1.78248        0.06747
C         -1.57492       -0.37981       -0.02839
H         -3.81444        2.01910       -0.39060
H          2.75016        2.15121        0.28544
H          5.40974        1.59500       -0.37173
H          5.81634        0.00633       -0.59029
H          4.01385       -1.82536       -0.28056
H          0.97035       -4.26755        0.29573
H         -0.64190       -4.06875        0.37196
H         -2.06909       -2.45873        0.00849
