35
Coordinates from ORCA-job ./opt_b97-3c_parallel
N          5.74021        0.41323       -0.77338
C          4.81393       -0.25606       -0.78889
C          3.44422        0.01238       -0.47261
C          2.68739       -1.16672       -0.12384
C          1.37655       -0.69038        0.17480
C          0.28957       -1.51143        0.64960
N          0.48851       -1.66870        1.72610
C         -0.85765       -2.03309       -0.05177
C         -0.90325       -3.46522       -0.18360
N         -0.98420       -4.60262       -0.24741
C         -1.93778       -1.13480       -0.46164
N         -2.80043       -1.57969       -1.00246
C         -1.94860        0.28248       -0.09803
C         -3.08077        1.01494       -0.34935
N         -4.11108        1.13778       -0.74140
N         -3.01900        2.21231        0.22251
C         -1.77337        2.18496        0.83834
N         -1.90658        3.19729        1.27882
C         -1.02336        1.05491        0.56117
C          0.20910        1.52223        0.18262
C          1.33827        0.65655        0.00212
C          2.63073        1.13554       -0.39584
N          2.92262        2.18289       -0.58523
H          3.04335       -2.19229       -0.07424
H          0.20587       -2.64866        1.77364
H          1.46819       -1.65853        2.01365
H         -2.59727       -1.54440       -2.00193
H         -2.93264       -2.56882       -0.78279
H         -5.02769        1.52685       -0.97053
H         -4.16521        0.14983       -1.00175
H         -2.40906        4.08537        1.22012
H         -1.07860        3.39700        1.84284
H          0.39190        2.57631       -0.01385
H          3.92189        2.06481       -0.40950
H          2.82095        3.09508       -1.02224
