23
Coordinates from ORCA-job ./opt_b97-3c_parallel
N         -4.22223       -2.19885        0.00997
C         -3.74243       -1.16281       -0.02448
C         -2.49872       -0.45776       -0.00891
C         -2.72722        0.95486        0.00221
C         -1.44676        1.59465        0.02642
C         -1.59445        3.01707        0.04437
N         -0.77043        3.80734       -0.00706
C         -0.48944        0.60866        0.02291
N          0.82136        1.03029        0.04806
C          2.04020        0.38865        0.00547
N          3.13344        1.21319        0.01460
C          4.23976        0.38983       -0.06263
C          3.90984       -0.93636       -0.13844
C          2.54650       -0.94039       -0.07921
C          1.88644       -2.21688       -0.07991
C          0.50747       -2.59300       -0.00137
N         -0.72022       -1.96992        0.01627
C         -1.14014       -0.65967        0.00160
H         -3.69535        1.45092       -0.00243
H          5.25335        0.82017       -0.06824
H          4.50482       -1.68781        0.37719
H          2.55544       -3.07184       -0.12468
H          0.18465       -3.64590        0.00889
