29
Coordinates from ORCA-job ./opt_b97-3c_parallel
N          5.77121        0.15204        0.52513
C          4.63815        0.18999        0.39801
C          3.22134        0.27269        0.21515
C          2.55687        1.44444       -0.03754
C          1.25690        1.02112       -0.18298
C          0.19157        1.95921       -0.45729
C         -1.21237        1.67729       -0.26968
C         -2.11204        2.68209       -0.45573
N         -3.38563        2.71621       -0.13930
C         -2.77847        1.52428        0.18312
C         -1.79535        0.58277        0.31095
C         -1.96240       -0.74682        0.60432
N         -2.84525       -1.02912        1.21392
C         -1.04135       -1.74907        0.12350
C         -1.23441       -3.16323        0.29685
N         -1.41867       -4.28729        0.39745
C          0.08014       -1.17647       -0.58051
N          0.25088       -1.48113       -1.63202
C          1.17018       -0.35231       -0.11145
C          2.39307       -0.88261        0.15787
H          2.79887        2.36224        0.49120
H          0.46897        2.98392       -0.69019
H         -2.01351        3.70541       -0.85270
H         -3.80940        1.32495        0.52507
H         -3.55023       -0.49492        1.71838
H         -3.04895       -2.01398        1.37552
H         -0.09624       -2.43902       -1.65801
H          1.24498       -1.53166       -1.84829
H          2.71503       -1.91681        0.21808
