24
Coordinates from ORCA-job ./opt_b97-3c_parallel
N         -2.01685        3.81759        0.04927
C         -1.42565        2.83991        0.02505
C         -0.69082        1.59667        0.00204
C          0.70797        1.77168       -0.06652
C          1.84075        0.93400        0.00761
C          3.09077        1.66385        0.00408
N          4.06690        2.25859       -0.00576
C          1.92130       -0.47297        0.12312
N          3.07072       -1.14716        0.29736
C          2.46482       -2.08123        0.23080
N          1.51635       -2.66218        0.11786
C          0.88428       -1.49181       -0.03071
N         -0.07355       -1.24226       -0.93084
C         -1.11994       -1.00037       -0.13368
N         -2.13605       -1.85388        0.06466
C         -3.06900       -1.27331        0.12989
N         -4.42312       -1.44978        0.17050
C         -2.52330        0.04770        0.14379
C         -1.48245        0.42966        0.07483
H          0.98331        2.82523       -0.13804
H          3.38471       -2.61700        0.04062
H         -4.81187       -2.37129        0.00264
H         -5.03473       -0.65246        0.04779
H         -3.20051        0.89601        0.18816
