29
Coordinates from ORCA-job ./opt_b97-3c_parallel
N          5.03702       -1.65602       -0.48685
C          3.99925       -1.19421       -0.35585
C          2.68660       -0.63156       -0.22676
C          1.56251       -1.50873       -0.29812
C          0.38639       -0.72262       -0.14501
C         -0.83372       -1.49668       -0.00205
C         -2.16206       -0.96193        0.14414
C         -3.24804       -1.81322        0.47828
C         -4.37932       -1.07225        0.39191
C         -4.04157        0.15650        0.01423
C         -2.68859        0.26107       -0.17074
C         -1.92981        1.10075       -0.91039
C         -1.31904        1.96246       -0.06450
C          0.05964        1.77942        0.31437
N          0.37542        2.77953        0.66944
C          0.75341        0.60306        0.03316
C          2.20039        0.64667       -0.00764
N          2.97638        1.43249        0.08416
H          1.60451       -2.58770       -0.41340
H         -0.73334       -2.57633        0.05934
H         -3.16265       -2.87469        0.68789
H         -5.38818       -1.42483        0.59280
H         -4.74831        0.96836       -0.14083
H         -2.24623        1.41888       -1.90022
H         -1.83045        2.89865        0.16882
H          1.32251        2.53888        0.95807
H          0.34254        3.79282        0.57851
H          3.95508        1.29238       -0.16195
H          2.54188        1.92611       -0.69373
