33
Coordinates from ORCA-job ./opt_b97-3c_parallel
N         -5.74861       -0.00100       -0.72788
C         -4.61517       -0.02536       -0.56708
C         -3.19963       -0.09704       -0.36698
C         -2.37421        0.77033       -1.03307
C         -1.13676        0.41006       -0.54412
C          0.07082        1.21792       -0.71044
N         -0.04449        2.03471       -1.45048
C          0.77505        1.50862        0.53309
C          1.33309        2.80444        0.83460
N          1.80090        3.81476        1.09141
C          1.91912        0.65804        0.82303
N          2.55844        0.44529        1.71096
C          2.02840       -0.63124        0.19052
C          3.07795       -0.91172       -0.64007
N          4.04046       -0.63894       -1.10725
N          2.92598       -2.10522       -1.19551
C          1.70787       -2.49685       -0.65693
C          1.08630       -1.60983        0.18898
C         -0.18202       -1.60230        0.67661
C         -1.24301       -0.72316        0.24190
C         -2.54589       -1.08623        0.43468
N         -3.01357       -1.92708        0.98368
H         -2.66105        1.81505       -1.14054
H          0.15470        3.00778       -1.22263
H         -0.77793        2.04944       -2.15828
H          2.39284        0.16059        2.67667
H          2.84008        1.42595        1.75784
H          4.30502        0.06756       -0.42074
H          4.91049       -0.99947       -1.49876
H          1.25255       -3.46986       -0.90053
H         -0.46621       -2.45212        1.29015
H         -3.98222       -1.84149        0.67837
H         -3.00021       -2.65137        1.69779
