29
Coordinates from ORCA-job ./opt_b97-3c_parallel
N          0.96152        4.57531        0.10618
C          0.85521        3.43872        0.06592
C          0.77058        2.01377        0.03093
C         -0.28610        1.46469        0.69026
C         -1.22444        0.72903        0.02769
C         -2.31570        1.39363       -0.43948
C         -2.93121        0.17026       -0.40080
C         -4.33888        0.24872       -0.65667
N         -5.46244        0.27929       -0.85858
C         -2.63621       -1.13705       -0.11935
C         -1.37111       -0.69049        0.12129
C         -0.30926       -1.53014        0.66501
N         -0.56867       -2.51728        1.09723
C          1.09537       -1.22051        0.41885
C          2.09945       -2.16982        0.81120
N          3.19152       -1.82832        0.13480
C          2.90004       -0.76131       -0.60681
N          3.90162       -0.78618       -1.08234
C          1.56861       -0.20149       -0.50472
C          1.76933        1.22360       -0.62235
H         -0.45764        1.72139        1.73481
H         -2.72875        2.25243        0.08799
H         -2.82006       -1.92902       -0.84327
H         -0.32306       -3.36734        1.60284
H         -1.53424       -2.31345        1.35464
H          2.24500       -3.10186        1.37826
H          4.04430       -0.01984       -1.73979
H          4.71456       -1.39399       -1.18746
H          2.60077        1.71401       -1.12188
