34
Coordinates from ORCA-job ./opt_b97-3c_parallel
N         -5.36692       -2.07790       -0.12464
C         -4.35556       -1.56108        0.00385
C         -3.07418       -0.92981        0.12552
C         -1.96556       -1.70609        0.60152
C         -0.81304       -0.87080        0.57411
C          0.45244       -1.51133        0.86682
C          1.72441       -1.14629        0.27052
C          2.70020       -2.18209        0.13580
N          2.83643       -3.24374        0.40789
C          3.69247       -1.68265       -0.64983
C          3.38899       -0.43878       -0.99443
C          2.22151       -0.04410       -0.39737
C          1.71661        1.29551       -0.23573
N          2.24851        2.07799       -0.82173
C          0.81126        1.70971        0.70524
C          1.08628        1.81185        1.78513
N          1.41033        2.50818        2.63202
C         -0.45020        1.60096        0.18618
N         -0.85564        2.59704       -0.10789
C         -1.20986        0.37552        0.16366
C         -2.62163        0.35602       -0.13159
N         -3.37568        1.09525       -0.46394
H         -1.98962       -2.76121        0.85690
H          0.38482       -2.52930        1.23938
H          2.37500       -3.38162        1.30468
H          3.51838       -3.99272        0.30598
H          4.57654       -2.22103       -0.99049
H          4.00067        0.18295       -1.64390
H          3.24877        1.89021       -0.82226
H          2.13112        3.07375       -0.64448
H         -0.45030        3.41227        0.34899
H         -1.72543        2.39122        0.38102
H         -2.97785        1.85604       -1.01251
H         -4.31587        0.93107       -0.81993
