31
Coordinates from ORCA-job ./opt_b97-3c_parallel
N         -5.75490       -0.71002       -1.19392
C         -4.65694       -0.47292       -0.98717
C         -3.28574       -0.19710       -0.69434
C         -2.33828       -1.24073       -0.51799
C         -1.16239       -0.51900       -0.21655
C          0.03642       -1.22935        0.13907
C          1.36575       -0.64546        0.17887
C          2.47052       -1.53608        0.37804
N          2.61741       -2.61340        0.58088
C          3.71825       -0.97649        0.20777
C          3.33559        0.27485       -0.21231
N          4.24799        0.83295       -0.49350
C          1.93503        0.54889       -0.19076
C          1.46918        1.83903       -0.65823
C          0.13876        2.31161       -0.40112
C         -0.57664        1.60420        0.61239
N         -0.83162        2.13765        1.54314
C         -1.45965        0.81570       -0.18761
C         -2.76782        1.06226       -0.53775
H         -2.48773       -2.31456       -0.56570
H         -0.04176       -2.30634        0.25500
H          3.29179       -3.37288        0.51480
H          1.80921       -2.97235        1.08416
H          4.49978       -1.10547        0.96055
H          3.96202        1.56462       -1.14026
H          5.15198        0.49079       -0.81331
H          2.16535        2.51665       -1.14189
H         -0.17185        3.28464       -0.77164
H         -1.80555        1.88050        1.69114
H         -0.78623        3.15436        1.56397
H         -3.34114        1.85090       -0.05711
