27
Coordinates from ORCA-job ./opt_b97-3c_parallel
N         -5.22555        0.14383        0.59862
C         -4.14675        0.49081        0.45128
C         -2.79005        0.88994        0.24577
C         -2.38073        2.19372        0.26071
C         -1.02822        2.08798        0.02786
C         -0.30377        3.31934       -0.02762
N          0.08811        4.31992       -0.41693
C         -0.55541        0.80310       -0.12213
N          0.64123        0.38407       -0.37681
C          1.61137       -0.44228       -0.17107
C          2.97097       -0.32857        0.01647
C          3.73548        0.87829        0.01564
N          4.35133        1.84065       -0.01654
C          3.49811       -1.57424        0.21053
C          2.54601       -2.49216        0.14827
C          1.37551       -1.85074       -0.08905
N          0.41246       -2.40310       -0.18555
C         -0.68743       -2.27768       -0.11396
N         -0.96630       -3.34882       -0.13808
C         -1.86494       -1.45304       -0.00491
C         -1.71321       -0.01230        0.03418
H         -2.97513        2.96982       -0.21725
H          4.54889       -1.78170        0.39909
H          2.68205       -3.56406        0.27670
H         -0.43250       -4.19594       -0.32320
H         -1.88760       -3.49093       -0.54602
H         -2.85450       -1.89634        0.08622
