37
Coordinates from ORCA-job ./opt_b97-3c_parallel
N         -5.70499        1.17863        0.20017
C         -4.61635        0.85499        0.07794
C         -3.23601        0.46382       -0.03787
C         -2.70013       -0.74488       -0.44526
N         -3.33910       -1.60684       -0.72343
C         -1.33600       -0.64688       -0.34546
C         -0.51091       -1.82308       -0.49380
N         -0.48762       -2.89485       -0.75148
N          0.65721       -1.97182        0.04417
C          1.83441       -1.62249        0.45339
N          2.25837       -2.53701        0.89596
C          2.31236       -0.31819        0.13041
C          3.70034       -0.00782        0.24943
N          4.75688       -0.17147        0.51829
N          3.83350        1.04511       -0.54807
C          2.63134        1.32485       -1.05938
N          2.91617        2.17973       -1.70088
C          1.45717        0.63167       -0.55020
C          0.34379        1.22715        0.17526
N          0.63332        2.23605        0.53380
C         -0.98081        0.62038        0.05963
C         -2.13327        1.34573        0.30655
N         -2.29745        2.38606        0.65340
H         -3.19892       -2.59653       -0.52717
H         -4.34323       -1.44183       -0.66138
H         -0.26445       -3.85978       -0.99043
H         -1.33620       -2.65546       -1.26201
H          2.01577       -3.42036        0.44782
H          1.96544       -2.61962        1.86841
H          4.41485       -1.00795        0.99091
H          5.76614       -0.15348        0.65868
H          3.70378        2.72406       -2.05169
H          2.13818        2.83051       -1.59608
H          0.69407        2.60490        1.48282
H         -0.23708        2.60126        0.14614
H         -2.15448        2.43251        1.66091
H         -3.24654        2.71687        0.48123
