35
Coordinates from ORCA-job ./opt_b97-3c_parallel
N          5.96537        1.40720       -0.40033
C          4.86890        1.12065       -0.27131
C          3.48071        0.77258       -0.13509
C          3.00123       -0.32101       -0.78746
C          1.67410       -0.35734       -0.41197
C          0.88516       -1.55262       -0.73268
N          1.31500       -2.32287       -1.40743
C         -0.30080       -1.99145       -0.01056
C         -0.79776       -3.34511        0.02563
N         -1.14409       -4.43194        0.09743
C         -0.87740       -1.14305        0.98557
N         -1.20081       -1.18730        2.04415
C         -1.55033       -0.21176        0.11882
C         -2.88309       -0.22956       -0.17176
N         -3.74349       -0.92152       -0.17668
C         -3.10896        1.17143       -0.39295
C         -4.23133        2.02133       -0.66519
N         -5.17404        2.64606       -0.83143
C         -2.07931        2.06537       -0.21141
C         -1.11954        1.13088        0.06763
C          0.11153        1.53353        0.52426
C          1.35929        0.81856        0.27890
C          2.49201        1.55310        0.53071
N          2.73721        2.52075        1.01046
H          3.60337       -1.22166       -0.87684
H          1.01420       -3.29495       -1.45795
H          2.12695       -2.23253       -2.01451
H         -2.14679       -0.80915        1.99849
H         -1.30160       -2.20113        2.03664
H         -4.55484       -0.38544       -0.48293
H         -3.93130       -1.89332       -0.41546
H         -1.87379        2.86969       -0.91749
H          0.20172        2.56915        0.83839
H          2.31944        3.12750        1.71258
H          3.66275        2.89330        0.80656
