31
Coordinates from ORCA-job ./opt_b97-3c_parallel
N         -0.00897        5.16222       -0.01914
C         -0.00286        4.01931       -0.00609
C         -0.00260        2.57161       -0.00225
C          1.28996        2.04436       -0.15745
C          1.86012        0.75866       -0.13345
C          3.25820        0.73538       -0.23589
C          3.51961       -0.67075       -0.08561
C          4.90012       -1.04592       -0.07562
N          5.84720       -1.67505        0.02296
C          2.38716       -1.53806        0.09465
N          2.30764       -2.88896        0.30244
C          1.32712       -0.61517        0.01621
C         -0.00124       -1.05999        0.00037
C         -1.33091       -0.61613       -0.01550
C         -2.38916       -1.53879       -0.09304
N         -2.30886       -2.88979       -0.29939
C         -3.52887       -0.67416        0.08621
C         -4.90968       -1.05667        0.07613
N         -5.85626       -1.69009       -0.01534
C         -3.26094        0.73139        0.23692
C         -1.86390        0.75791        0.13462
C         -1.29404        2.04364        0.15738
H          2.03929        2.82629       -0.28716
H          3.86568        1.63050       -0.34262
H          1.47020       -3.25447        0.74020
H          3.17760       -3.37973        0.48156
H         -0.00109       -2.14278        0.00027
H         -3.17853       -3.38175       -0.47819
H         -1.47164       -3.25408       -0.73644
H         -3.87029        1.62605        0.34329
H         -2.04428        2.82552        0.28276
