25
Coordinates from ORCA-job ./opt_b97-3c_parallel
N          4.93780        0.30126       -0.27295
C          3.80080        0.20490       -0.19695
C          2.36268        0.11824       -0.07809
C          1.93515        1.42177        0.13207
C          0.69103        2.02709        0.14202
C          0.90069        3.44962        0.25732
N          1.09026        4.57107        0.37272
C         -0.64355        1.51901       -0.03899
N         -1.66038        2.45108       -0.16668
C         -2.88725        1.96945       -0.24861
C         -2.64085        0.63576       -0.12294
C         -3.84000       -0.12467       -0.31625
N         -4.81247       -0.69872       -0.49383
C         -1.26072        0.24111        0.01506
C         -0.82509       -1.12978        0.22090
C         -1.82306       -2.11831        0.56167
N         -2.59028       -2.90963        0.86870
C          0.44957       -1.69687        0.07018
N          0.56863       -3.04300        0.05692
C          1.87702       -3.40499       -0.17780
N          2.57648       -2.23036       -0.28894
C          1.70622       -1.17364       -0.13065
H          2.75268        2.14282        0.24645
H         -3.74275        2.65510       -0.34536
H          2.20958       -4.45232       -0.23707
