32
Coordinates from ORCA-job ./opt_b97-3c_parallel
N          1.16388        4.46587        0.96165
C          1.10268        3.34833        0.72930
C          1.06587        1.95441        0.40353
C          2.22770        1.14819        0.60906
C          2.29895       -0.25077        0.25278
C          3.59013       -0.85426        0.33572
C          3.66667       -2.17950       -0.00285
C          2.32871       -2.37244       -0.24892
N          2.25344       -3.46133       -0.43318
C          1.43967       -1.25424       -0.12877
C          0.07940       -1.51651       -0.26488
C         -1.03360       -0.65348        0.04634
C         -2.31717       -1.10313        0.11952
N         -2.80208       -2.08838       -0.00947
C         -3.00205        0.12122        0.39811
C         -4.38573        0.44756        0.57219
N         -5.51001        0.26338        0.45653
C         -2.27480        1.27735        0.53727
C         -1.04685        0.75804        0.20597
C         -0.04131        1.54108       -0.25781
N         -0.38812        2.02880       -1.46348
H          3.12458        1.63441        0.98298
H          4.45642       -0.27123        0.63314
H          4.44279       -2.51981       -0.68984
H          2.84364       -4.23056       -0.12157
H          1.38057       -3.53554        0.08581
H         -0.21441       -2.53524       -0.49666
H         -2.41897       -2.40688       -0.89833
H         -3.81142       -2.20965       -0.06590
H         -2.38059        1.90116        1.42272
H         -1.36687        2.00471       -1.74499
H         -0.01561        2.92932       -1.76018
