27
Coordinates from ORCA-job ./opt_b97-3c_parallel
N         -1.36074       -4.10058        0.43960
C         -1.62309       -2.98980        0.37974
C         -1.93061       -1.59643        0.26794
C         -3.23415       -1.21603        0.10456
C         -3.11911        0.13979       -0.08654
C         -4.38648        0.75345       -0.33891
N         -5.27730        0.96826       -1.02319
C         -1.83000        0.59983        0.02663
N         -1.55893        1.94284       -0.18363
C         -0.38463        2.43623        0.31266
N          0.61008        2.15840        1.07568
C          1.52767        1.51417        0.44300
C          2.77926        2.04264        0.29412
C          3.52372        0.93254       -0.03067
N          4.60295        1.13774       -0.15231
C          2.80436       -0.23900       -0.12868
C          3.23135       -1.57447       -0.42301
N          3.56384       -2.64895       -0.62594
C          1.45535        0.12833        0.14589
C          0.39755       -0.76519        0.22350
C         -0.97590       -0.53078        0.24663
H         -3.91231       -1.81395       -0.50359
H         -0.61125        3.45356       -0.04087
H          2.91653        2.98986       -0.22621
H          5.23185        1.80195       -0.59996
H          5.09339        0.24514       -0.11861
H          0.68527       -1.80936        0.18985
