31
Coordinates from ORCA-job ./opt_b97-3c_parallel
N         -5.42954       -0.85127        0.06922
C         -4.32997       -0.54237        0.09439
C         -2.94794       -0.16529        0.08867
C         -1.97583       -1.03007        0.69409
C         -0.68631       -0.42989        0.51411
C          0.51430       -1.23177        0.74294
N          0.41198       -2.25815        1.14607
C          1.67431       -1.03345       -0.11167
C          2.52340       -1.98097       -0.60395
C          3.48677       -1.34464       -1.25414
C          3.33710       -0.02800       -1.18867
C          2.23940        0.24254       -0.42491
C          2.16364        1.32645        0.40308
N          3.24132        1.53540        1.17895
C          1.09701        2.10850        0.42914
C          0.00413        1.86618       -0.34252
C         -0.89494        0.76491       -0.13247
C         -2.29044        0.94022       -0.42183
N         -2.84139        1.77260       -0.89897
H         -2.18622       -2.00653        1.11959
H          1.31319       -2.67438        1.37187
H         -0.27674       -2.68817        1.75980
H          2.41667       -3.05942       -0.51410
H          4.29958       -1.84103       -1.77848
H          3.99456        0.71016       -1.64135
H          3.46104        2.47483        1.50317
H          4.11835        1.06606        0.96105
H          1.07522        2.96133        1.10382
H         -0.37645        2.71101       -0.90748
H         -3.84617        1.83526       -0.74340
H         -2.54370        2.66860       -1.27916
