28
Coordinates from ORCA-job ./opt_b97-3c_parallel
N         -3.69014       -1.87542        1.40144
C         -2.75735       -1.37764        0.96782
C         -1.60340       -0.75222        0.38110
C         -0.51048       -1.57191       -0.06771
N         -0.39206       -2.67332        0.02666
C          0.47170       -1.10480       -0.87865
C          1.53106       -0.68102       -0.14820
C          2.63382       -1.45674        0.03768
C          3.32907       -0.33397        0.41346
N          4.42193       -0.48590        0.51859
C          2.91068        0.89937        0.84787
C          1.67175        0.62986        0.35672
C          0.73012        1.68414        0.06140
C         -0.66614        1.63009       -0.34982
N         -1.21314        2.77690       -0.66010
C         -2.47860        2.52956       -0.52352
C         -2.83703        1.31037       -0.17748
C         -1.68133        0.62421       -0.07833
H          0.25669       -3.28719        0.51436
H         -1.31246       -3.10420        0.09077
H          0.53256       -1.32567       -1.94279
H          2.98951       -2.11928       -0.75011
H          4.97281        0.35404        0.35214
H          4.96628       -1.26833        0.15967
H          3.43230        1.81379        0.56742
H          1.14064        2.68669        0.14925
H         -3.10342        3.41164       -0.72930
H         -3.85121        0.94369       -0.03679
