30
Coordinates from ORCA-job ./opt_b97-3c_parallel
N         -4.59840       -1.22621       -1.22804
C         -3.56453       -0.91456       -0.85373
C         -2.27573       -0.53708       -0.34195
C         -1.33024       -1.58283       -0.05528
N         -1.36621       -2.68402       -0.18673
C         -0.26463       -1.45228        0.77204
C          0.91453       -1.10493        0.20836
C          2.09941       -1.88188        0.03401
C          3.21993       -1.19311       -0.37629
N          4.39162       -1.81142       -0.15448
C          2.67198        0.06761       -0.41260
C          3.61839        1.08732       -0.75172
N          4.12792        2.08745       -0.53291
C          1.28495        0.14919       -0.09977
C          0.59247        1.40200        0.01291
C         -0.83716        1.56962        0.20435
C         -1.24881        2.91926        0.37118
C         -2.59447        2.98896        0.34227
C         -3.04774        1.75971        0.14588
C         -2.02377        0.84176        0.05991
H         -0.97471       -3.60325       -0.38135
H         -2.37724       -2.80064       -0.13835
H         -0.39597       -1.40278        1.85167
H          2.09671       -2.93672        0.29371
H          5.26601       -1.31123       -0.30514
H          4.52662       -2.77637       -0.44957
H          1.19336        2.30440       -0.04920
H         -0.57918        3.77192        0.42790
H         -3.19528        3.88914        0.45326
H         -4.10738        1.52087        0.08928
