36
Coordinates from ORCA-job ./opt_b97-3c_parallel
N         -5.80930       -1.20636        0.10355
C         -4.71135       -0.89796        0.04062
C         -3.34742       -0.46899       -0.02844
C         -2.30014       -1.37909        0.32046
C         -1.04406       -0.69791        0.16808
C          0.18602       -1.48878        0.26764
N          0.10609       -2.57970        0.43510
C          1.51789       -0.99220       -0.04997
C          2.63305       -1.76405       -0.30307
N          2.97272       -2.80896       -0.42342
C          3.68955       -0.89734       -0.41075
C          3.31955        0.36847       -0.23395
N          4.18860        1.39197       -0.28189
C          1.97141        0.35084       -0.01599
C          1.22421        1.22199        0.84159
N          1.66166        2.14496        1.27258
N          0.64613        2.19524        0.12886
C         -0.54572        1.78253       -0.46094
N         -0.63198        2.83040       -0.80803
C         -1.34115        0.58977       -0.24084
C         -2.76640        0.73090       -0.39200
N         -3.38785        1.59966       -0.68625
H         -2.44978       -2.41623        0.60804
H         -0.41380       -3.33929       -0.00209
H          0.99867       -2.97619        0.72876
H          3.80127       -3.29493       -0.08199
H          2.59328       -3.37981       -1.17756
H          4.72264       -1.19327       -0.60439
H          3.90593        2.30846       -0.62378
H          5.15537        1.23351       -0.56530
H          1.72455        3.05565        1.72631
H          2.52307        1.65208        1.50934
H         -1.64974        2.74851       -0.85084
H         -0.37587        3.54539       -1.48790
H         -4.00619        1.84955        0.08765
H         -3.99449        1.20073       -1.40491
