30
Coordinates from ORCA-job ./opt_b97-3c_parallel
N          5.71203        1.44860        0.24802
C          4.63877        1.08729        0.09455
C          3.28553        0.66156       -0.06301
C          2.20749        1.47483       -0.22339
C          1.14053        0.60574       -0.27663
C         -0.12814        1.20198       -0.57401
C         -1.44145        0.71114       -0.27883
C         -2.48778        1.59482       -0.27539
N         -2.82124        2.63533       -0.46259
N         -3.64587        1.07684        0.17029
C         -3.36687       -0.25323        0.48123
N         -4.33282       -0.67778        0.81767
C         -1.98169       -0.51203        0.19538
C         -1.56345       -1.88138        0.24983
C         -0.35926       -2.49933       -0.21381
C          0.92794       -2.00485       -0.38998
N          1.52417       -2.92431       -0.56247
C          1.56123       -0.71020       -0.20672
C          2.92691       -0.70436       -0.07711
H          2.14540        2.42067        0.31170
H         -0.08388        2.26520       -0.79726
H         -3.57704        3.31865       -0.38849
H         -2.06804        3.12541       -0.94783
H         -4.11979       -1.58419        1.23699
H         -5.33626       -0.54774        0.95673
H         -2.34233       -2.59350        0.50698
H         -0.54250       -3.57898       -0.27829
H          2.41789       -2.72037       -1.00792
H          1.42121       -3.93805       -0.59316
H          3.62895       -1.53035        0.00276
