22
Coordinates from ORCA-job ./opt_b97-3c_parallel
N         -4.55284       -1.99753       -0.31458
C         -3.68593       -1.26048       -0.21187
C         -2.58234       -0.34267       -0.08843
C         -2.65427        1.02523       -0.07259
C         -1.30093        1.52112        0.06727
C         -1.34798        2.94120        0.22953
N         -1.41993        4.08174        0.25411
C         -0.50864        0.72351        0.12178
N          0.83304        0.74499        0.10862
C          2.12794        0.39191        0.18501
N          3.20819        1.14858       -0.02633
C          3.69097        0.14308       -0.16546
N          3.85936       -0.96421       -0.26122
C          2.53252       -0.98514       -0.10800
N          1.73762       -2.02382        0.21265
C          0.66945       -2.29295        0.21400
C         -0.70500       -1.89969        0.06996
C         -1.23369       -0.59718        0.03559
H         -3.62082        1.51836       -0.15852
H          4.69556        0.51412       -0.31664
H          1.07142       -3.27663        0.42731
H         -1.33406       -2.78381       -0.00236
