28
Coordinates from ORCA-job ./opt_b97-3c_parallel
N         -5.86752       -0.03804        0.12144
C         -4.72524       -0.00601        0.15104
C         -3.29570        0.01828        0.14774
C         -2.53101       -1.13860        0.43536
C         -1.19628       -0.71244        0.21367
C         -0.22490       -1.79209        0.18705
C          1.14968       -1.69475       -0.23045
C          1.95439       -2.73951       -0.55310
C          3.18643       -2.26056       -0.64713
C          3.22778       -0.95881       -0.38361
C          1.96766       -0.54402       -0.06603
C          1.59681        0.52493        0.68235
N          2.11390        0.57776        1.92132
C          1.10293        1.45384       -0.17316
C          2.01372        2.51488       -0.48261
N          2.71865        3.38435       -0.71350
C         -0.28262        1.56621       -0.50914
C         -1.24005        0.62894       -0.15637
C         -2.53491        1.09062       -0.22280
H         -2.89196       -2.13612        0.66652
H         -0.61670       -2.79812        0.30550
H          1.64666       -3.77034       -0.71409
H          4.05572       -2.85936       -0.90523
H          4.11926       -0.33692       -0.39095
H          2.82741       -0.09725        2.19067
H          2.38835        1.47843        2.30896
H         -0.58044        2.51433       -0.94953
H         -2.86191        1.75229       -1.02250
