29
Coordinates from ORCA-job ./opt_b97-3c_parallel
N         -6.06475       -1.52703       -0.11174
C         -4.96417       -1.21910       -0.14346
C         -3.58508       -0.84943       -0.14340
C         -2.55480       -1.63427       -0.57015
C         -1.44349       -0.87177       -0.28956
C         -0.16650       -1.56340       -0.23236
C          1.11218       -0.97627        0.06666
C          2.20867       -1.81114        0.37182
C          3.28231       -0.88132        0.42574
C          4.62455       -1.30008        0.67354
N          5.69818       -1.65278        0.84328
C          2.91135        0.41607        0.18748
C          1.56812        0.30381       -0.08949
C          0.73748        1.15309       -0.88951
N          0.89211        1.32128       -1.96945
C          0.22429        1.87207        0.23823
C          0.79591        3.12334        0.63755
N          1.25394        4.13044        0.92377
C         -1.10618        1.51058        0.63828
C         -1.79376        0.38758        0.20127
C         -3.14934        0.41003        0.33196
H         -2.56691       -2.70781       -0.39452
H         -0.19101       -2.64370       -0.34248
H          2.23478       -2.89003        0.49087
H          3.54878        1.08897       -0.38142
H          1.00886        2.33297       -1.98171
H          1.78698        0.91622       -2.23760
H         -1.63066        2.26923        1.21346
H         -3.79270        1.19654        0.71553
