34
Coordinates from ORCA-job ./opt_b97-3c_parallel
N         -5.68476       -0.40578       -0.86681
C         -4.58010       -0.33250       -0.58508
C         -3.18405       -0.22041       -0.26521
C         -2.65602        1.09244       -0.09176
C         -1.27598        0.95021        0.21503
C         -0.55717        2.13025        0.58693
N         -0.82452        3.19629        0.71360
N          0.67302        2.09824        0.95046
C          1.52607        1.88085        0.00730
C          2.12462        0.60288       -0.17683
C          3.37833        0.44854       -0.69933
N          4.13540        1.10051       -1.17141
C          3.74629       -0.82629       -0.37812
C          2.80221       -1.47635        0.30270
N          3.06186       -2.67733        0.85210
C          1.70000       -0.65156        0.36607
C          0.29048       -1.07094        0.51367
N          0.22849       -2.15821        0.71127
C         -0.90984       -0.37865        0.24549
C         -2.13816       -1.11004       -0.05018
N         -2.49487       -2.15315       -0.17864
H         -3.21491        2.02189       -0.14831
H         -1.27457        2.68554        1.47096
H         -0.25184        3.91742        1.14826
H          1.96549        2.82132       -0.35466
H          3.62169        1.52305       -1.94149
H          5.02221        0.77584       -1.55092
H          4.74470       -1.23091       -0.54717
H          2.51866       -2.98446        1.65679
H          4.02674       -2.96174        1.00929
H          0.94006       -2.85852        0.51073
H         -0.63523       -2.65638        0.91790
H         -3.31727       -2.54229       -0.63702
H         -1.70178       -2.32390       -0.79499
