31
Coordinates from ORCA-job ./opt_b97-3c_parallel
N         -5.43590       -0.89184       -0.74496
C         -4.33196       -0.64992       -0.57372
C         -2.95253       -0.36334       -0.31787
C         -2.00953       -1.33615       -0.52368
C         -0.87330       -0.67596       -0.13281
C          0.39880       -1.34667       -0.01156
C          1.71313       -0.74015        0.14861
C          2.80146       -1.65626        0.30422
N          2.98880       -2.73745        0.43061
C          3.94699       -0.93720        0.18057
C          3.63548        0.32542       -0.07146
C          2.28014        0.51166       -0.08388
C          1.62618        1.71936       -0.53755
N          2.06457        2.60336       -1.03457
C          0.33744        2.05155       -0.00152
C         -0.25673        1.35703        0.99772
C         -1.14631        0.58257        0.32657
C         -2.47832        0.86943        0.23587
N         -3.05790        1.76073        0.54257
H         -2.19227       -2.36289       -0.21403
H          0.37028       -2.42821       -0.10342
H          3.63276       -3.46645        0.13054
H          2.09476       -3.18640        0.61597
H          4.96401       -1.32139        0.25677
H          4.36807        1.11621       -0.21460
H          3.01566        2.26464       -1.16347
H          2.12917        3.48530       -0.53056
H         -0.12326        2.99687       -0.28753
H         -0.52132        1.83947        1.93635
H         -4.03989        1.49588        0.49058
H         -2.95493        2.62674        0.01786
