31
Coordinates from ORCA-job ./opt_b97-3c_parallel
N         -1.34663       -4.31274        1.03346
C         -0.94713       -3.29637        0.70231
C         -0.41022       -2.04484        0.26597
C          0.98494       -1.71772        0.46707
C          1.58217       -0.47108        0.03348
C          2.99600       -0.32781        0.18049
N          4.01471       -0.64301        0.45879
N          3.26910        0.85221       -0.36787
C          2.12486        1.39386       -0.78769
N          2.63199        2.28639       -1.20250
C          0.89148        0.68116       -0.52253
C         -0.02865        1.67804       -0.02940
C         -1.36721        1.21951        0.23267
C         -2.41342        2.04110        0.73612
N         -2.53034        3.09627        1.02675
N         -2.87233        1.01827        0.60801
C         -3.26423       -0.02618        0.42477
C         -1.89766       -0.06075        0.03318
C         -1.22193       -1.18776       -0.55580
N         -1.35177       -1.29108       -1.64854
H          1.61920       -2.45691        0.94762
H          3.82935       -1.55461        0.87526
H          5.02668       -0.52165        0.47280
H          2.07035        2.81876       -1.86600
H          3.46711        2.84650       -1.02482
H          0.21714        2.71634        0.17616
H         -2.36940        4.04101        1.37018
H         -3.52750        3.02112        0.83146
H         -4.25646       -0.48323        0.56053
H         -1.56490       -2.28756       -1.69191
H         -2.20766       -0.80616       -1.91739
