22
Coordinates from ORCA-job ./opt_b97-3c_parallel
N          1.02389        3.99756       -0.10832
C          1.24742        2.87877       -0.15675
C          1.48870        1.47074       -0.17774
C          2.72503        0.92997       -0.42066
C          2.53940       -0.40402       -0.14413
C          3.71990       -1.20208       -0.27652
N          3.79348       -2.06658       -1.02110
C          1.23499       -0.68133        0.17882
N          0.77787       -1.94202        0.53505
C         -0.59199       -2.08514        0.55471
N         -1.97067       -2.08098        0.52290
C         -2.59735       -0.91987        0.08145
N         -3.88713       -0.76597       -0.36772
C         -4.06910        0.56075       -0.71626
N         -2.90523        1.25865       -0.44161
C         -1.97469        0.37374        0.04660
C         -0.78744        0.75720        0.60177
C          0.48142        0.51963        0.15905
H          3.63291        1.45069       -0.11919
H         -0.28187       -3.08828        0.88846
H         -5.08346        0.75454       -1.09977
H         -0.86368        1.35786        1.50559
