31
Coordinates from ORCA-job ./opt_b97-3c_parallel
N         -2.67207        2.72091        1.44766
C         -1.84435        2.07346        0.99709
C         -0.76588        1.28846        0.44630
C          0.35024        2.06612        0.09577
N          0.45603        3.17480        0.14352
C          1.55383        1.77384       -0.55561
C          2.21729        0.49976       -0.52665
C          3.48850        0.38613       -1.00521
C          3.88609       -0.44478        0.01123
N          4.95926       -0.71240        0.01662
C          3.07649       -0.99253        0.97509
C          1.94666       -0.32180        0.59365
N          1.18114       -1.42011        0.26662
C         -0.10080       -1.15998       -0.00670
C         -0.93353       -2.28475       -0.26651
C         -2.28461       -2.07665       -0.34778
N         -3.12331       -3.11318       -0.18090
C         -2.26171       -0.72502       -0.09653
C         -3.53451       -0.08348       -0.25313
N         -4.55594        0.40537       -0.41144
C         -0.96754       -0.11413        0.09992
H         -0.44412        3.64974        0.09463
H          1.13296        3.86452        0.46460
H          2.16988        2.53532       -1.04964
H          4.07030        1.26694       -1.27386
H          5.36344       -1.64021        0.12817
H          5.68522       -0.11998       -0.38140
H          3.13395       -2.04647        1.26170
H         -0.50616       -3.28197       -0.32927
H         -2.88927       -4.03184       -0.55151
H         -4.12711       -2.97734       -0.28192
