29
Coordinates from ORCA-job ./opt_b97-3c_parallel
N         -2.37249        3.94250       -0.00375
C         -2.76513        2.86877       -0.00201
C         -2.54644        1.45365       -0.00084
C         -3.79202        0.75340        0.00133
C         -3.49195       -0.64151        0.00232
C         -4.63528       -1.49811        0.00459
N         -5.32159       -2.41171        0.00507
C         -2.12246       -0.77049        0.00138
N         -1.67982       -2.07788        0.00227
C         -0.45343       -2.70256        0.00201
C          0.91714       -2.30532        0.00120
C          1.48763       -0.98540        0.00110
C          2.92276       -0.85650        0.00210
C          3.84124       -1.96053        0.00247
N          4.54539       -2.86097        0.00269
C          3.43220        0.42443        0.00232
N          4.72494        0.80541       -0.04986
C          2.22544        1.08426        0.00039
C          2.41975        2.50650       -0.00007
N          2.37557        3.64889       -0.00254
C          1.03303        0.29287       -0.00021
C         -0.22207        0.99280       -0.00172
C         -1.51998        0.53422       -0.00078
H         -4.78530        1.19565        0.00199
H         -0.61210       -3.79151        0.00274
H          1.59927       -3.14772        0.00186
H          5.50760        0.15656        0.01737
H          5.02663        1.77680        0.01458
H         -0.12886        2.07317       -0.00320
