27
Coordinates from ORCA-job ./opt_b97-3c_parallel
N         -0.64494        4.39062       -0.16479
C         -0.36469        3.28359       -0.11669
C          0.02897        1.90089       -0.04292
C          1.47891        1.72400       -0.00554
C          2.41800        0.60565       -0.00240
C          3.79670        1.00649       -0.00668
N          4.88339        1.36108       -0.00143
C          2.15284       -0.81952       -0.01840
N          3.10581       -1.72284       -0.06607
C          2.48343       -2.84977       -0.03725
C          1.17965       -2.75998        0.03273
C          0.92528       -1.42702        0.05708
N         -0.34837       -1.49240        0.15166
C         -0.97585       -0.37837        0.05888
C         -2.23362       -0.92840       -0.00032
C         -3.07710       -2.09784       -0.01194
N         -3.74716       -3.02173        0.05005
C         -3.02580        0.25298       -0.10746
N         -4.07933        0.58534       -0.21719
C         -2.34039        1.43570       -0.06180
C         -1.03161        0.98621       -0.02353
H          2.00059        2.67972       -0.01048
H          3.32754       -3.55318       -0.08625
H          0.49125       -3.60929        0.06258
H         -4.65872       -0.24366       -0.09075
H         -4.69009        1.39131       -0.09575
H         -2.65815        2.24157        0.60600
