28
Coordinates from ORCA-job ./opt_b97-3c_parallel
N          4.39259       -1.61395       -0.49112
C          3.41829       -1.10134       -0.18564
C          2.24069       -0.28474       -0.02388
C          2.54088        1.06222        0.03895
N          3.39543        1.77043        0.01406
C          1.44497        1.86751        0.21958
C          0.41981        0.96051        0.18897
C         -0.99730        1.34088        0.25080
C         -1.25086        2.74659        0.42775
N         -1.30197        3.84091        0.75532
C         -2.17003        0.47196        0.10628
N         -3.37237        0.98062        0.08000
C         -4.06366       -0.03130       -0.29010
C         -3.44181       -1.17314       -0.43930
C         -2.01597       -0.95774       -0.11390
C         -1.50676       -2.30353       -0.04627
C         -0.07921       -2.35337        0.06151
N          0.39520       -3.34118        0.18757
N          0.62681       -1.50541        0.04640
C          0.81289       -0.41287        0.09201
H          4.25936        1.35709       -0.33473
H          3.51757        2.78094       -0.02399
H          1.34366        2.84328       -0.26101
H         -5.09584        0.33987       -0.37853
H         -4.00688       -2.06056       -0.71832
H         -2.10060       -3.21402        0.00372
H         -0.31094       -3.99611        0.51836
H          1.28479       -3.65019        0.57375
