28
Coordinates from ORCA-job ./opt_b97-3c_parallel
N         -1.33727        3.84700        1.25131
C         -0.91638        2.86214        0.85198
C         -0.35774        1.65188        0.33424
C          1.05634        1.39031        0.43057
C          1.61248        0.15539       -0.07267
C          3.02759       -0.02931        0.04226
N          4.02713        0.32343        0.34329
N          2.94612       -1.01984       -0.43060
C          2.10496       -1.48972       -0.96657
C          0.83039       -0.91133       -0.64324
C         -0.09268       -1.98096       -0.35904
C         -1.40858       -1.61916        0.10916
C         -2.37876       -2.46612        0.53460
C         -3.41290       -1.71193        0.88149
C         -3.17149       -0.41742        0.69666
C         -1.91481       -0.27918        0.18752
C         -1.28783        0.84889       -0.25692
N         -1.76035        1.06583       -1.49754
H          1.70993        2.12961        0.88358
H          4.97554       -0.04533        0.33123
H          4.02010        1.11618        0.98075
H          2.60233       -2.47173       -0.95218
H          0.17061       -3.03411       -0.39249
H         -2.32018       -3.55111        0.58306
H         -4.34863       -2.10574        1.27096
H         -3.86212        0.39466        0.90982
H         -1.76080        2.00883       -1.88146
H         -2.61798        0.60625       -1.79811
