25
Coordinates from ORCA-job ./opt_b97-3c_parallel
N         -3.56527       -2.95664        0.00017
C         -2.64667       -2.27847        0.00007
C         -1.52765       -1.37126       -0.00007
C         -0.36276       -2.13646        0.00091
C          1.00601       -1.86918        0.00134
C          1.68113       -3.14213        0.00333
N          2.24042       -4.13791        0.00116
C          1.81061       -0.66580        0.00049
N          3.10865       -0.73354        0.00086
C          3.75866        0.39455        0.00005
C          2.74579        1.30938       -0.00064
C          2.95164        2.72453       -0.00089
N          3.06069        3.86188       -0.00116
C          1.45798        0.70361       -0.00066
N          0.33427        1.50134       -0.00132
C         -1.00966        1.22329       -0.00131
N         -1.86463        2.30212       -0.00199
C         -3.17238        1.84377       -0.00187
N         -4.09692        2.44787       -0.00221
N         -3.12352        0.45963       -0.00121
C         -1.80274        0.04801       -0.00084
H         -0.57754       -3.21200        0.00154
H          4.85531        0.48902       -0.00046
H         -4.18843        3.46530       -0.00245
H         -5.05377        2.08967       -0.00183
