31
Coordinates from ORCA-job ./opt_b97-3c_parallel
N         -1.02284        4.43981       -0.23366
C         -0.83385        3.31956       -0.12857
C         -0.55690        1.91179       -0.07607
C         -1.71174        1.16066       -0.06032
C         -1.92301       -0.25858       -0.00451
C         -3.29289       -0.67722        0.04485
N         -4.32178       -0.27470        0.06848
C         -3.29186       -2.03477        0.07095
C         -2.03802       -2.45645        0.03032
C         -1.16208       -1.40485       -0.01085
C          0.16995       -1.74506       -0.04088
C          1.34799       -0.92403        0.01038
C          2.57823       -1.54666        0.05313
N          2.98484       -2.57643        0.04655
C          3.62640       -0.66618        0.18476
C          3.00201        0.55257        0.13999
N          3.76163        1.35462        0.20845
C          1.57644        0.47901        0.04895
C          0.85653        1.65415       -0.00203
H         -2.64717        1.71553       -0.08580
H         -4.25176        0.72092        0.26797
H         -5.28175       -0.54968        0.26559
H         -4.16443       -2.68662        0.11996
H         -1.75471       -3.50669        0.04482
H          0.39535       -2.80780       -0.05626
H          3.87632       -2.98600       -0.22695
H          2.25842       -3.19717       -0.30422
H          4.60763       -0.84187       -0.26535
H          3.26002        2.21866        0.40224
H          4.75055        1.54982        0.35257
H          1.46273        2.55674        0.00988
