28
Coordinates from ORCA-job ./opt_b97-3c_parallel
N         -0.17968        4.37792        0.16909
C         -0.04692        3.24391        0.13347
C          0.07551        1.81498        0.08223
C          1.40487        1.29766        0.02943
C          1.87388       -0.06895        0.00243
C          3.24232       -0.23945       -0.05008
N          4.16020        0.37402       -0.09713
C          3.49914       -1.57859       -0.03139
C          2.36908       -2.26185        0.02937
C          1.31562       -1.40144        0.04557
C         -0.01732       -1.95884        0.08473
C         -1.31150       -1.34149        0.03672
C         -2.44215       -2.21047        0.00341
N         -3.52135       -1.41958       -0.06382
C         -3.20203       -0.11744       -0.07225
N         -4.14734        0.45410       -0.12167
C         -1.77048        0.00122       -0.00026
C         -1.14232        1.20016        0.06575
H          2.18198        2.05790        0.02192
H          5.16810        0.26978       -0.20046
H          3.95548        1.36011       -0.24607
H          4.48732       -2.03765       -0.05597
H          2.30392       -3.34737        0.05881
H         -0.04135       -3.04547        0.10850
H         -2.48477       -3.31065        0.01953
H         -4.02589        1.45657       -0.26621
H         -5.15135        0.28488       -0.16611
H         -1.93510        1.94841        0.11313
