27
Coordinates from ORCA-job ./opt_b97-3c_parallel
N         -4.17174       -2.17995       -0.46495
C         -3.03402       -2.08507       -0.42457
C         -1.60710       -1.99445       -0.34662
C         -0.77867       -3.06903       -0.36075
C          0.46758       -2.67016       -0.16346
C          0.52560       -1.30735       -0.04447
C          1.75655       -0.62855        0.34111
C          2.87559       -1.39148        0.82123
N          3.77710       -2.00275        1.16829
C          1.97218        0.75289        0.00387
N          2.88052        1.38512        0.08943
C          1.13481        1.49711       -0.75832
C          0.24303        2.25314       -0.07724
C          0.34629        3.59427        0.14604
C         -0.91709        3.88058        0.60532
N         -1.77792        2.80382        0.72678
C         -1.00180        1.75310        0.33762
C         -1.54953        0.43994        0.14396
C         -0.83678       -0.79752       -0.15291
H         -1.09251       -4.10188       -0.49378
H          1.31934       -3.34582       -0.13317
H          3.64981        0.71745        0.11306
H          3.26695        2.28767        0.35965
H          1.12646        1.43717       -1.84514
H          0.84408        4.24848       -0.56530
H         -1.72584        4.55342        0.92833
H         -2.62660        0.38176        0.25664
