28
Coordinates from ORCA-job ./opt_b97-3c_parallel
N          3.10484       -3.91451       -0.00025
C          2.39514       -3.01837       -0.00027
C          1.46334       -1.92159       -0.00133
C          0.10049       -2.39636       -0.00052
C         -1.14478       -1.81831       -0.00113
C         -1.59756       -0.45980       -0.00180
C         -3.01787       -0.31588       -0.00247
C         -4.21657       -1.09590       -0.00303
N         -5.33439       -1.33069        0.00615
C         -3.23434        1.10276       -0.00124
N         -3.92461        1.96932       -0.00014
N         -2.05564        1.74817       -0.00063
C         -1.05366        0.78992       -0.00073
C          0.27094        1.32967        0.00007
C          1.55105        0.67492       -0.00107
C          2.60278        1.56326       -0.00153
C          2.99737        2.94064       -0.00135
N          2.50377        3.97153       -0.00331
C          3.72208        0.79999       -0.00235
C          3.37966       -0.47476       -0.00245
C          2.00788       -0.63111       -0.00152
H          0.04758       -3.48430        0.00006
H         -1.94434       -2.55382       -0.00141
H         -4.86496        1.57116        0.00145
H         -4.04725        2.98185        0.00037
H          0.30183        2.41569        0.00052
H          4.75121        1.15980       -0.00242
H          4.13417       -1.25839       -0.00274
