29
Coordinates from ORCA-job ./opt_b97-3c_parallel
N          2.59775        2.73684       -2.10158
C          2.03833        2.05549       -1.37621
C          1.28777        1.21098       -0.49716
C          0.09335        1.74430        0.08753
C         -0.50816        1.16535        1.15909
C         -1.49368        0.58930        0.42387
C         -2.83167        1.03760        0.23175
C         -3.41603        2.25907        0.68354
N         -3.91676        3.22390        1.03249
C         -3.50452       -0.03231       -0.45179
N         -4.45427       -0.40819       -0.87558
N         -2.61494       -1.08223       -0.65189
C         -1.44928       -0.65463       -0.13155
C         -0.33390       -1.58849       -0.05031
C         -0.58847       -2.98554       -0.27811
N         -1.25542       -3.83807        0.08910
C          1.04804       -1.25641        0.30540
C          2.01016       -2.18884        0.60904
C          3.23165       -1.69899        0.47790
C          3.13814       -0.41029        0.08192
C          4.26271        0.46783       -0.02548
N          5.16333        1.16883       -0.07260
C          1.74100       -0.08017        0.00212
H         -0.19931        2.74434       -0.22808
H         -0.72964        1.74294        2.05458
H         -4.81449       -1.34467       -1.06168
H         -5.26276        0.21433       -0.90566
H          1.80947       -3.20408        0.94599
H          4.15640       -2.23771        0.67617
