27
Coordinates from ORCA-job ./opt_b97-3c_parallel
N          2.70897        2.87058       -0.54518
C          2.35893        1.78826       -0.43123
C          1.94149        0.42436       -0.25114
C          2.76040       -0.67075       -0.09879
N          3.85347       -0.83971       -0.09081
C          2.09220       -1.84820        0.10524
C          0.79495       -1.43504       -0.00262
C         -0.29729       -2.36908        0.20460
C         -1.69139       -2.07407       -0.05580
N         -2.44472       -2.85709        0.13706
C         -2.22893       -1.03662       -0.76281
C         -2.30347        0.23786       -0.28480
N         -3.09422        1.29813        0.11801
C         -2.91532        2.53694        0.52723
C         -1.62706        2.28258        0.35954
C         -1.25973        1.08554       -0.06763
N         -0.22624        0.73034       -0.25219
C          0.58028       -0.02747       -0.18811
H          4.60180       -1.50717       -0.26796
H          4.25703        0.09027       -0.19162
H          2.38378       -2.54439        0.89138
H         -0.04063       -3.36919        0.54524
H         -2.34208       -3.86982        0.15931
H         -3.36071       -2.64254        0.52760
H         -2.49191       -1.19944       -1.80626
H         -3.76681        3.17953        0.79575
H         -0.88672        3.05251        0.57048
