30
Coordinates from ORCA-job ./opt_b97-3c_parallel
N          3.68905        3.40834        0.33766
C          2.82810        2.67448        0.17579
C          1.71344        1.78246       -0.03915
C          0.57658        2.44653       -0.61846
C         -0.75911        2.14480       -0.55838
C         -1.41173        0.96342       -0.08839
C         -2.81811        1.05471        0.13271
C         -3.85936        2.03780        0.13112
N         -4.23475        3.11660        0.17793
C         -3.49998       -0.10142        0.39617
C         -2.44465       -0.94516        0.15639
C         -2.83306       -2.31272        0.33778
N         -3.17245       -3.39052        0.50962
C         -1.13935       -0.36540       -0.09182
C          0.00693       -1.13825       -0.52932
C         -0.17227       -2.48354       -1.00471
N         -0.27322       -3.55340       -1.39637
C          1.35973       -0.76400       -0.15900
C          2.31430       -1.73990       -0.07354
C          3.50067       -1.07660        0.00829
N          4.48846       -1.54464       -0.13262
C          3.20389        0.08751        0.65101
C          1.95654        0.42494        0.19851
H          0.77795        3.47841       -0.90040
H         -1.41667        2.98234       -0.77325
H         -4.10675       -0.21122        1.29613
H          2.14525       -2.63260        0.52717
H          4.60785       -2.54607       -0.27405
H          5.40085       -1.17122        0.12041
H          3.49168        0.24662        1.68773
