30
Coordinates from ORCA-job ./opt_b97-3c_parallel
N         -5.95290        0.78488        0.32451
C         -4.85858        0.45969        0.27243
C         -3.48479        0.08152        0.17221
C         -2.99562       -0.84381       -0.70159
C         -1.63913       -0.79245       -0.48123
C         -0.81433       -1.70742       -1.23986
C          0.48208       -2.14814       -0.81554
C          0.90263       -1.74151        0.48874
N          1.16472       -2.42441        1.31317
C          1.67157       -0.70260       -0.13657
C          2.96787       -0.80746       -0.54463
C          3.01879        0.54063       -0.31805
C          4.33141        1.04538       -0.58900
N          5.38474        1.44759       -0.77542
C          2.20945        1.55937        0.10533
C          1.22832        0.60901        0.19010
C         -0.02735        0.89273        0.74107
N         -0.09124        1.83302        1.33291
C         -1.29695        0.21065        0.42860
C         -2.46852        0.75337        0.89266
H         -3.50429       -1.79513       -0.84233
H         -1.26514       -2.24535       -2.06840
H          0.98943       -2.90755       -1.40463
H          2.02693       -2.01670        1.67032
H          1.32842       -3.42475        1.21621
H          3.65712       -1.49155       -0.05265
H          2.06338        2.45239       -0.49906
H         -0.82908        1.82271        2.03348
H          0.78991        1.86376        1.84257
H         -2.63947        1.59015        1.56428
