31
Coordinates from ORCA-job ./opt_b97-3c_parallel
N          3.26377       -2.94737       -1.00159
C          3.01739       -1.86299       -0.73965
C          2.67829       -0.51919       -0.38469
C          3.54159        0.31594        0.39559
N          4.53495        0.20064        0.86627
C          3.07580        1.57120        0.69404
C          1.86606        1.48776        0.05973
C          0.91284        2.58410        0.09505
C         -0.24821        2.57152       -0.76816
N         -0.79893        3.53266       -0.74579
N         -1.39244        2.14764       -0.19633
C         -1.51867        0.75672       -0.13880
C         -2.65018        0.07063        0.39522
C         -3.75199        0.79172        0.95540
N         -4.61156        1.40857        1.38729
C         -2.57972       -1.29901        0.28404
N         -3.50933       -2.19780        0.65962
C         -1.35066       -1.38022       -0.33573
C         -0.84444       -2.68480       -0.64885
N         -0.14617       -3.21036        0.08794
C         -0.65591       -0.16317       -0.63734
N          0.48732       -0.08762       -1.23701
C          1.57180        0.24624       -0.61672
H          5.39077        0.70995        1.08186
H          4.80219       -0.77543        0.74454
H          3.69949        2.45778        0.56823
H          1.17936        3.48088        0.65219
H         -1.66697        4.06932       -0.70297
H         -0.13741        4.12314       -1.25050
H         -3.46725       -3.16097        0.32686
H         -4.49006       -1.93374        0.74901
