28
Coordinates from ORCA-job ./opt_b97-3c_parallel
N         -5.42816       -0.24488       -0.23931
C         -4.28610       -0.21889       -0.25265
C         -2.85160       -0.18460       -0.22801
C         -2.15892       -1.37080        0.16950
C         -0.76436       -1.10166        0.10251
C          0.09565       -2.19343        0.49655
C          1.43964       -2.27860        0.02204
C          1.90949       -1.46420       -0.95170
C          2.50318       -0.50409       -0.20048
C          3.88177       -0.41436        0.15365
N          3.50904        0.59842        0.45461
C          2.95368        1.56450        0.56838
C          1.93118        0.68456        0.08377
C          0.57212        1.12963       -0.19408
N          0.49052        2.23492       -0.24063
C         -0.58209        0.22216       -0.26167
C         -1.89726        0.79194       -0.47863
N         -2.34005        1.77346       -0.73922
H         -2.61849       -2.31457        0.44804
H         -0.32508       -3.06127        0.99583
H          1.99684       -3.16698        0.30376
H          2.40381       -1.86984       -1.83066
H          4.95331       -0.62340        0.29103
H          3.08270        2.60817        0.89256
H         -0.24836        2.24981       -0.94138
H          1.35128        2.47871       -0.72668
H         -3.28724        2.10373       -0.55951
H         -1.75516        2.12759        0.01674
