27
Coordinates from ORCA-job ./opt_b97-3c_parallel
N          3.22181        2.31638        0.41553
C          2.76869        1.28783        0.21625
C          2.15135        0.01894       -0.02439
C          2.64727       -1.15427       -0.55081
N          3.65145       -1.43070       -0.91508
C          1.73501       -2.17433       -0.67340
C          0.62421       -1.59717       -0.13007
C         -0.62226       -2.31436        0.02240
C         -1.68098       -1.76369        0.83356
N         -2.54410       -2.42802        1.00663
N         -2.57108       -0.97919        0.20043
C         -2.31066        0.26125       -0.26355
N         -3.19899        1.00495       -0.99331
C         -2.59603        2.23256       -1.20621
N         -1.35235        2.24898       -0.59041
C         -1.14520        1.03375        0.03004
C         -0.11728        0.63093        0.83409
C         -0.08996        0.92508        1.90058
N         -0.10694        1.65127        2.78333
C          0.78524       -0.24014        0.29226
H          4.34317       -0.77462       -0.55361
H          4.15787       -2.28811       -1.13243
H          1.99595       -3.20645       -0.43693
H         -0.65679       -3.35826       -0.28177
H         -2.01745       -3.18128        1.44852
H         -3.52333       -2.71051        1.04002
H         -3.19397        2.95304       -1.78634
