29
Coordinates from ORCA-job ./opt_b97-3c_parallel
N         -3.89185       -2.63317       -1.25462
C         -2.95521       -2.09479       -0.88173
C         -1.81653       -1.38464       -0.38078
C         -0.62913       -2.13620       -0.09906
C          0.30832       -1.72248        0.78440
C          1.35239       -1.13840        0.15834
C          2.68089       -1.62771       -0.02607
C          3.61028       -0.70418       -0.44769
N          4.86554       -1.03678       -0.10250
C          2.78309        0.39382       -0.47104
C          3.49508        1.58682       -0.82430
N          3.49758        2.71695       -0.64926
C          1.41234        0.17416       -0.13686
C          0.49638        1.19723       -0.03192
C         -0.93640        1.06799        0.15035
C         -1.66415        2.28296        0.29239
C         -3.05453        1.95820        0.21874
N         -4.01917        2.49387        0.24145
N         -3.18931        0.59662        0.00644
C         -1.92466        0.02174       -0.01547
H         -0.63851       -3.18109       -0.39914
H          0.45458       -2.25452        1.72211
H          2.92386       -2.65083        0.24909
H          5.24531       -1.94713       -0.35624
H          5.61659       -0.35305       -0.18642
H          0.85282        2.21991       -0.10091
H         -1.24319        3.28008        0.38435
H         -4.14828        3.50570        0.23818
H         -4.95097        2.09000        0.14743
