33
Coordinates from ORCA-job ./opt_b97-3c_parallel
N         -6.21217       -0.27238       -0.76594
C         -5.08731       -0.18776       -0.58141
C         -3.68094       -0.07885       -0.30877
C         -3.15868        1.22606       -0.06142
C         -1.77945        1.06456        0.22249
C         -1.08019        2.19790        0.72660
N          0.04970        2.08844        1.32362
C          0.91332        2.11506        0.37129
C          1.60519        0.93666       -0.04468
C          2.85915        0.98887       -0.57856
N          3.46693        1.85328       -0.90884
C          3.20149       -0.40109       -0.55860
C          4.44408       -0.93588       -1.04323
N          5.56882       -0.94040       -0.83891
C          2.32121       -1.27666        0.02830
N          2.70150       -2.08375        1.03886
C          1.23211       -0.43574        0.18555
C         -0.16336       -0.92787        0.27122
N         -0.18663       -2.03664        0.27725
C         -1.39463       -0.25224        0.13207
C         -2.62184       -0.97293       -0.19052
N         -2.97174       -2.00743       -0.38598
H         -3.72628        2.15056       -0.01501
H         -1.47765        3.21659        0.85341
H          1.30823        3.13138        0.21887
H          4.43185        1.53835       -0.81401
H          3.46544        2.59162       -1.60943
H          3.67759       -2.10937        1.32849
H          2.12710       -2.14821        1.87743
H         -1.02338       -2.51125        0.61196
H          0.57466       -2.71262        0.30678
H         -3.78351       -2.41162       -0.84988
H         -2.18528       -2.09528       -1.02748
