32
Coordinates from ORCA-job ./opt_b97-3c_parallel
N         -0.26172        4.73418        1.37417
C          0.38793        3.87163        0.99961
C          1.17335        2.78892        0.49176
C          2.33692        2.91316       -0.20415
C          2.66436        1.74925       -0.75684
C          1.75272        0.80131       -0.38851
C          1.89883       -0.62562       -0.54079
C          3.02089       -1.08872       -1.31791
N          3.93271       -1.43626       -1.91336
C          1.45292       -1.34677        0.63877
N          2.25003       -1.90050        1.18728
C          0.22015       -1.97702        0.50161
C         -0.05284       -3.30540        1.01290
N          0.04835       -4.44422        0.99687
C         -0.87537       -1.41838       -0.15058
C         -1.93293       -2.18534       -0.57746
C         -2.99224       -1.31341       -0.56475
N         -3.95751       -1.80065       -0.79066
C         -2.65683       -0.02609       -0.21652
C         -3.49093        1.12685       -0.04825
N         -4.13029        2.06453        0.08778
C         -1.24702       -0.04468        0.00274
C         -0.60595        1.03299        0.72141
C          0.74725        1.42281        0.41235
H          2.89944        3.83710       -0.31927
H          3.54556        1.58529       -1.37296
H          2.13061       -2.91292        1.18012
H          3.24451       -1.72887        1.04734
H         -1.79942       -2.90447       -1.38544
H         -4.42782       -2.70172       -0.72564
H         -4.65319       -1.09049       -0.56690
H         -1.24274        1.81532        1.11909
