29
Coordinates from ORCA-job ./opt_b97-3c_parallel
N         -2.97691       -3.29711        0.07530
C         -2.19536       -2.46688        0.05808
C         -1.17409       -1.45781        0.03206
C          0.12919       -2.07573       -0.00844
C          1.48199       -1.61268       -0.06215
C          2.08805       -0.31588       -0.00191
C          3.45414       -0.24191       -0.02945
C          4.56148       -1.14803       -0.12232
N          5.00279       -2.19426       -0.00129
C          3.68206        1.16710        0.07220
N          4.60005        1.78517        0.10462
C          2.59810        2.00194        0.16875
C          1.63124        1.02842        0.11089
N          0.43070        1.62016        0.11893
C         -0.85254        1.11247        0.05354
N         -1.70397        2.15063        0.03976
C         -2.98620        1.66761       -0.00390
N         -3.67608        2.53837       -0.01751
C         -2.94831        0.24174       -0.01155
C         -4.25840       -0.34165       -0.05245
N         -5.32392       -0.74986       -0.08367
C         -1.60150       -0.12468        0.02048
H          0.10375       -3.16521       -0.02546
H          2.18786       -2.43629       -0.12088
H          5.07935        2.68457        0.05807
H          5.33526        1.07881        0.05499
H          2.52276        2.91533       -0.42489
H         -3.83870        3.54753       -0.01802
H         -4.61221        2.12418       -0.03641
