29
Coordinates from ORCA-job ./opt_b97-3c_parallel
N         -3.06073       -3.27079        0.60687
C         -2.12758       -2.66084        0.36666
C         -0.99487       -1.84310        0.07446
C          0.35483       -2.27392        0.30813
C          1.46550       -1.38526        0.05628
C          2.75666       -1.92402        0.34523
N          3.55919       -0.87116        0.31783
C          2.81591        0.19228        0.02178
N          3.75520        0.76242        0.19050
C          1.38496        0.04509       -0.25638
C          0.79286        1.35889       -0.53127
N          1.31571        2.29127       -0.82944
C         -0.58432        1.58707       -0.10369
C         -1.16395        2.79994        0.17050
N         -2.41914        2.46616        0.45009
C         -2.72792        1.12380        0.31945
N         -3.81319        1.11358        0.52753
C         -1.50954        0.50544       -0.08120
C         -1.37092       -0.73628       -0.61284
H          0.53742       -3.27055        0.70069
H          3.33913       -2.81032        0.64339
H          4.75183        0.72493        0.41633
H          3.52554        1.75579        0.14948
H          1.09548        3.27781       -0.97403
H          1.64577        1.95113       -1.73399
H         -1.02024        3.88609        0.28444
H         -4.31383        0.28851        0.86261
H         -4.50995        1.86034        0.50211
H         -1.62334       -0.86088       -1.66504
