27
Coordinates from ORCA-job ./opt_b97-3c_parallel
N          2.86189       -4.01687       -0.02624
C          2.20217       -3.08573       -0.01948
C          1.40394       -1.88859       -0.01190
C          0.08242       -2.32911       -0.01154
C         -1.13176       -1.75167       -0.00624
C         -1.60669       -0.45592        0.00069
C         -3.01005       -0.13699        0.00544
C         -4.07913       -1.08989        0.00321
N         -4.95684       -1.81739        0.00146
C         -3.09894        1.22792        0.01168
N         -3.95353        1.93609        0.01684
N         -1.92029        1.85736        0.01142
C         -0.97983        0.83534        0.00409
N          0.28459        1.04144        0.00358
C          1.48707        0.61011        0.00092
C          2.59215        1.51958        0.00388
C          2.77790        2.93909        0.01015
N          2.29704        3.97453        0.01635
C          3.75952        0.83205       -0.00128
C          3.45641       -0.45442       -0.00723
C          2.09483       -0.61611       -0.00599
H         -0.05111       -3.41594       -0.01635
H         -1.91856       -2.50355       -0.00759
H         -4.89236        1.52830        0.01684
H         -4.10686        2.94641        0.02215
H          4.76536        1.25062       -0.00095
H          4.19380       -1.25523       -0.01300
