28
Coordinates from ORCA-job ./opt_b97-3c_parallel
N          4.40235       -1.76185        1.46336
C          3.67302       -0.94397        1.13868
C          2.76078        0.05973        0.68284
C          3.13366        1.16597       -0.02228
C          2.07407        1.71223       -0.60766
C          0.95972        1.01511       -0.24898
C         -0.40156        1.40699       -0.50069
C         -0.70896        2.43069       -1.46152
N         -0.92953        3.26868       -2.20707
C         -1.40438        1.17700        0.40262
N         -1.69199        2.24346        1.18585
C         -1.98659       -0.01841        0.50434
C         -2.79516       -0.34567        1.19565
N         -3.85060       -0.34154        1.63959
C         -1.56800       -1.08164       -0.25478
N         -2.24909       -1.93686       -1.11491
C         -1.58702       -3.06931       -1.33800
C         -0.46149       -2.99362       -0.63624
C         -0.35572       -1.78598       -0.05101
C          0.69318       -1.36478        0.84539
C          1.33544       -0.08498        0.59411
H          4.15388        1.53195       -0.11507
H          2.09580        2.60461       -1.22947
H         -1.47131        3.18423        0.86381
H         -2.58867        2.28408        1.66796
H         -1.78607       -3.99304       -1.90182
H          0.29208       -3.77583       -0.58805
H          1.34285       -2.15117        1.21482
