27
Coordinates from ORCA-job ./opt_b97-3c_parallel
N         -5.59343       -0.00295       -0.66388
C         -4.45462        0.05986       -0.58689
C         -3.03239        0.11398       -0.45233
C         -2.37973        1.22279        0.13634
C         -1.01504        0.83797        0.12572
C         -0.11813        1.78038        0.75994
C          1.29965        1.78436        0.54905
C          1.74109        1.09128       -0.62188
N          2.22920        1.71168       -1.39258
C          2.13172       -0.02193        0.18718
C          3.50399       -0.30659        0.44373
C          3.60090       -1.64009        0.67117
C          2.39445       -2.17668        0.52141
C          1.47018       -1.21658        0.21652
C          0.14120       -1.43143       -0.29073
C         -0.92882       -0.45157       -0.40094
C         -2.16867       -0.87368       -0.82489
H         -2.82306        2.13734        0.52099
H         -0.53879        2.60589        1.32616
H          1.88016        2.56455        1.03659
H          3.05620        1.11713       -1.38486
H          2.53323        2.64267       -1.11558
H          4.31648        0.37452        0.21175
H          4.51498       -2.18280        0.89887
H          2.17511       -3.23831        0.61583
H         -0.12364       -2.46226       -0.51623
H         -2.46066       -1.91768       -0.73387
