28
Coordinates from ORCA-job ./opt_b97-3c_parallel
N         -3.12500       -3.08528        1.59663
C         -2.30481       -2.45347        1.11411
C         -1.31803       -1.63238        0.47859
C         -0.11036       -2.25749        0.03012
C          0.62284       -1.75508       -0.99143
C          1.62283       -1.13648       -0.32431
C          2.97425       -1.55646       -0.18632
C          3.71637       -0.51160        0.25928
N          5.03193       -0.46316        0.51129
C          2.88779        0.51945        0.39090
C          1.59859        0.17621        0.05102
C          0.53382        1.06780       -0.06440
C          0.93068        2.45383       -0.02956
N          1.20279        3.56398       -0.00254
C         -0.85140        0.85608       -0.18296
N         -1.68163        1.89450       -0.40118
C         -2.98373        1.45024       -0.24699
N         -3.81096        2.16951       -0.36048
N         -2.94237        0.11396        0.09199
C         -1.62005       -0.26630        0.07768
H          0.03977       -3.29227        0.33018
H          0.83531       -2.36070       -1.87018
H          3.34574       -2.51243       -0.54279
H          5.65092       -1.18985        0.15515
H          5.53264        0.42292        0.45984
H          3.21380        1.49713        0.74206
H         -4.79817        1.92510       -0.28740
H         -3.76582        3.18813       -0.34227
