29
Coordinates from ORCA-job ./opt_b97-3c_parallel
N         -4.45967        2.28736        0.94091
C         -4.03570        1.30016        0.55396
C         -3.44601        0.08952        0.07220
C         -4.06567       -0.93441       -0.58247
C         -3.16473       -1.81114       -1.00955
C         -1.93266       -1.40774       -0.59946
C         -0.77481       -2.24344       -0.56980
C          0.23650       -2.00736        0.29768
N         -0.04132       -2.60180        1.46815
C          1.26814       -1.26622       -0.16299
C          2.40964       -2.07049       -0.47348
N          3.34728       -2.67904       -0.70590
C          1.29342        0.16405       -0.07341
C          2.42320        0.92722       -0.21561
C          3.81551        0.80805       -0.53572
N          4.06523        1.01786       -1.63185
C          2.10578        2.23364        0.09595
N          2.35985        3.30714        0.22359
N          0.76306        2.30265        0.44506
C          0.22466        1.02928        0.33101
N         -1.14901        0.84640        0.51298
C         -2.03399       -0.15783        0.09879
H         -5.13905       -1.01183       -0.74551
H         -3.38512       -2.72260       -1.56189
H         -0.85036       -3.20611       -1.06904
H          0.72104       -2.95046        2.05019
H         -0.77455       -3.31111        1.50847
H          2.13105        4.26361        0.50243
H          3.26380        3.37798       -0.25055
