32
Coordinates from ORCA-job ./opt_b97-3c_parallel
N         -1.15879       -3.98530        1.21392
C         -1.17739       -2.88859        0.89253
C         -1.23338       -1.52352        0.46792
C         -2.35258       -0.70474        0.81040
C         -2.49725        0.63897        0.30438
C         -3.78560        1.22944        0.42284
C         -3.72101        2.48567       -0.07365
C         -2.47596        2.70666       -0.47431
C         -1.67328        1.61981       -0.23591
C         -0.30579        1.83841       -0.36032
C          0.77535        0.93843       -0.02748
C          2.07788        1.33275        0.05896
N          2.54534        2.33015       -0.03493
C          2.71472        0.06478        0.26054
C          4.13219       -0.13569        0.36145
N          5.23223        0.05965        0.11857
C          1.94291       -1.06951        0.34773
N          2.12470       -2.25274        0.96245
C          0.73536       -0.48030        0.05305
C         -0.30653       -1.18334       -0.46026
N         -0.20025       -1.55392       -1.74786
H         -3.17772       -1.15733        1.35279
H         -4.65758        0.72924        0.83309
H         -4.54773        3.18916       -0.13851
H         -2.14045        3.64219       -0.91740
H          0.01923        2.84052       -0.62376
H          3.56148        2.31085       -0.10938
H          2.19425        2.73290       -0.90211
H          1.34054       -2.72351        1.41097
H          2.95421       -2.40948        1.53202
H          0.71843       -1.57735       -2.18681
H         -0.71608       -2.36671       -2.08014
