28
Coordinates from ORCA-job ./opt_b97-3c_parallel
N         -5.40395        0.78729        0.33932
C         -4.39698        0.24946        0.28116
C         -3.12919       -0.41320        0.25698
C         -3.08813       -1.78212        0.62072
C         -1.85771       -2.35461        0.59497
C         -1.05236       -1.30285        0.22715
C          0.31415       -1.60643       -0.20785
C          0.68794       -2.96755       -0.46666
N          1.03104       -4.03513       -0.68110
C          1.38810       -0.63897       -0.24150
N          2.64185       -0.84319       -0.51684
C          3.56553        0.01344       -0.19495
N          4.54715       -0.40880       -0.48131
C          2.77320        1.00386        0.34952
C          3.41817        2.17585        0.86397
N          4.47736        2.60160        0.79706
C          1.40613        0.58686        0.35003
N          0.50195        1.27849        0.94417
C         -0.21224        1.72199       -0.03634
C         -1.43554        1.11846       -0.47381
C         -2.29840        1.97044       -1.23574
N         -2.95515        2.65841       -1.86879
C         -1.80216       -0.13569        0.01831
H         -3.99354       -2.31453        0.89809
H         -1.55761       -3.04981        1.37644
H          5.11571       -1.25085       -0.38589
H          5.17828        0.37686       -0.31113
H          0.01243        2.75016       -0.36313
