25
Coordinates from ORCA-job ./opt_b97-3c_parallel
N          4.51166       -0.79072        1.05305
C          3.63996       -0.11610        0.75363
C          2.51838        0.68608        0.37332
C          2.58160        1.94198       -0.15170
C          1.37723        2.32738       -0.55579
C          0.47000        1.35349       -0.25704
C         -0.95759        1.49803       -0.31964
C         -1.55990        2.66957       -0.89160
N         -2.05194        3.61013       -1.31103
C         -1.64573        0.69273        0.64955
N         -2.70535        0.81126        0.95672
N         -2.28734       -0.34107        0.10656
C         -1.65318       -1.43960       -0.33710
N         -2.34194       -2.54623       -0.77011
C         -1.45804       -3.61629       -0.74269
N         -0.23440       -3.20545       -0.23384
C         -0.33005       -1.85627       -0.00270
C          0.82561       -1.16727        0.53252
C          1.15808        0.23124        0.31619
H          3.49241        2.52833       -0.25873
H          1.15780        3.28367       -1.02696
H         -2.57497        1.81203        1.10457
H         -3.67618        0.61909        1.20581
H         -1.49726       -4.69297       -0.97253
H          1.64567       -1.81458        0.83008
