29
Coordinates from ORCA-job ./opt_b97-3c_parallel
N         -0.43388       -4.23508       -0.36608
C          0.24590       -3.31953       -0.43031
C          1.04792       -2.13839       -0.49629
C          2.26793       -2.00657       -1.08178
C          2.72082       -0.77722       -0.89024
C          1.79509       -0.05257       -0.19718
C          1.99729        1.32446        0.24707
C          3.28407        1.93650        0.11488
N          4.29893        2.44178       -0.02353
C          0.91658        2.16156        0.72386
N          0.58146        3.14052        1.10432
N         -0.35847        1.98234        0.57813
C         -1.41215        1.33915        0.18616
C         -2.52050        1.89053       -0.38060
C         -3.27995        0.76948       -0.61183
N         -4.27236        0.65840       -1.08498
N         -2.66040       -0.34501       -0.18967
C         -1.47023       -0.06564        0.34036
C         -0.42530       -0.72100        0.92742
C         -0.48998       -1.05331        1.98214
N         -1.04511       -1.64612        2.78623
C          0.67087       -0.90286        0.12925
H          2.80300       -2.79714       -1.60446
H          3.68074       -0.41083       -1.24976
H          0.19232        3.78716        1.78951
H          1.55582        3.41042        0.97827
H         -2.96181        2.79375        0.03817
H         -4.76604        1.38938       -1.59805
H         -4.88691       -0.15590       -1.09746
