30
Coordinates from ORCA-job ./opt_b97-3c_parallel
N         -3.14066       -3.08061       -1.07665
C         -2.88716       -2.00353       -0.79253
C         -2.52562       -0.67032       -0.42080
C         -3.35372        0.16710        0.39424
N         -4.33733        0.05442        0.88538
C         -2.85533        1.40818        0.70085
C         -1.65735        1.30582        0.04695
C         -0.66995        2.37102        0.08489
C          0.50702        2.31518       -0.75552
N          1.11259        3.24186       -0.72526
N          1.60770        1.79087       -0.18262
C          1.63790        0.39395       -0.12213
C          2.70891       -0.35144        0.45026
C          3.84379        0.28822        1.04103
N          4.73450        0.84113        1.49465
C          2.41110       -1.66846        0.26270
N          3.11747       -2.74344        0.64839
C          1.25139       -1.73620       -0.38922
C          0.74323       -0.49676       -0.65821
N         -0.34439       -0.26176       -1.31419
C         -1.40820        0.07524       -0.66186
H         -5.17361        0.58294        1.12912
H         -4.63367       -0.91217        0.75514
H         -3.46149        2.30933        0.59735
H         -0.90570        3.27370        0.64570
H          2.03277        3.68402       -0.70391
H          0.50665        3.89267       -1.22515
H          4.11267       -2.66643        0.85684
H          2.95416       -3.65534        0.22277
H          0.76366       -2.66743       -0.67363
