32
Coordinates from ORCA-job ./opt_b97-3c_parallel
N          0.44272        4.37338       -0.66822
C          0.49825        3.25762       -0.42758
C          0.50819        1.85251       -0.12270
C         -0.48547        1.61479        0.76339
C         -1.64051        1.17442        0.21929
C         -2.84790        1.91467       -0.00859
N         -3.84394        1.07174       -0.38180
C         -3.27563       -0.19226       -0.38190
N         -4.11114       -0.86168       -0.65404
C         -1.90130       -0.12477       -0.04055
C         -1.10144       -1.30847        0.11272
C          0.34835       -1.32995        0.23511
C          0.96339       -2.60394        0.43425
N          0.55353       -3.61413        0.62447
C          2.33342       -2.64922        0.35135
C          2.57055       -1.32752        0.03923
N          3.67041       -1.26265       -0.06876
C          1.40514       -0.48371       -0.02285
C          1.54447        0.90463       -0.44812
N          2.45341        1.33862       -0.90721
H         -0.41213        1.91492        1.80748
H         -3.13632        2.97108        0.09838
H         -3.88590       -1.72507       -1.14729
H         -5.10795       -0.90647       -0.44413
H         -1.62347       -2.26045        0.09818
H          1.19122       -4.40473        0.53879
H         -0.17229       -3.89940        1.27877
H          2.83719       -3.46614       -0.17626
H          3.92917       -0.30100        0.14569
H          4.47792       -1.83977        0.16276
H          3.02004        0.60984       -1.33921
H          3.00476        2.19514       -0.93161
