27
Coordinates from ORCA-job ./opt_b97-3c_parallel
N         -3.59598        2.65357       -0.36551
C         -2.63697        2.05882       -0.18742
C         -1.42880        1.33633        0.07591
C         -1.59222        0.19138        0.79545
C         -1.64570       -1.01686        0.16728
C         -2.83381       -1.76115       -0.08307
N         -2.03829       -2.48427       -0.39760
C         -1.11608       -3.08391       -0.60302
C         -0.60376       -1.82421       -0.18003
C          0.83886       -1.67869       -0.13349
C          1.51589       -0.42144        0.09839
C          2.94777       -0.45874        0.10424
N          3.89314       -1.02440        0.05411
N          2.93819        0.63158        0.25493
C          2.13311        1.20351        0.74578
C          0.89637        0.87682        0.08955
C         -0.13273        1.78821       -0.34315
N          0.20575        2.67549       -0.90737
H         -1.80112        0.25093        1.86116
H         -3.93005       -1.84861       -0.04348
H         -0.67423       -4.03458       -0.93803
H          1.44575       -2.55964       -0.31903
H          4.84509       -0.93848        0.40285
H          3.55150       -1.94075        0.33479
H          2.65303        2.16997        0.66128
H         -0.46327        3.37458       -0.58943
H          1.10890        3.13908       -0.98095
