32
Coordinates from ORCA-job ./opt_b97-3c_parallel
N          1.38546       -3.88985       -0.07593
C          0.46369       -3.22166       -0.17102
C         -0.68931       -2.39309       -0.33315
C         -1.88210       -2.74643       -0.89385
C         -2.70662       -1.70744       -0.89303
C         -2.05889       -0.64901       -0.33665
C         -2.54031        0.70118       -0.17701
C         -3.85216        1.09941       -0.58688
N         -4.91355        1.39324       -0.89273
C         -1.79854        1.72936        0.32991
N         -1.96140        2.41007        1.47644
C         -0.78941        2.43820       -0.25637
C          0.57539        1.98184       -0.37328
C          1.57217        2.72971       -0.92895
C          2.63580        1.86714       -0.80381
N          3.57342        2.29044       -1.20607
C          2.34837        0.65218       -0.21914
C          3.18027       -0.47872        0.06315
N          3.86717       -1.36076        0.29809
C          0.96225        0.69022        0.10538
C          0.22330       -0.28554        0.71812
C          0.28101       -0.39589        1.81864
N          0.63458       -0.79017        2.83261
C         -0.73874       -1.02093        0.08279
H         -2.12741       -3.73815       -1.26739
H         -3.72928       -1.71029       -1.26401
H         -1.57024        3.34597        1.56939
H         -2.87231        2.41420        1.93266
H         -0.99729        3.42045       -0.67293
H          1.66512        3.78748       -0.68227
H          4.33930        1.74089       -0.81844
H          3.94390        3.22171       -1.38770
