33
Coordinates from ORCA-job ./opt_b97-3c_parallel
N         -4.42100        1.36339       -1.91424
C         -3.71846        0.58105       -1.46769
C         -2.81192       -0.39475       -0.94844
C         -2.85396       -1.73403       -1.19748
C         -1.93468       -2.35045       -0.46962
C         -1.21172       -1.41351        0.20439
C         -0.04706       -1.65839        1.03127
C          0.11747       -2.97319        1.57874
N          0.24543       -4.03278        1.98700
C          1.13658       -0.90739        0.62084
C          2.41176       -1.55579        0.48950
C          3.35711       -0.87960       -0.25064
N          4.21750       -1.75166       -0.80757
C          2.63770        0.25971       -0.52874
C          3.58386        1.10521       -1.19756
N          4.10224        1.69313       -2.02827
C          1.29965        0.27698       -0.03362
C          0.46477        1.45053       -0.07191
C          0.74207        2.58624       -0.91146
N          1.25138        3.60327       -1.01690
C         -0.54070        1.72341        0.81883
N         -0.26415        2.70164        1.71414
C         -1.65113        0.98515        0.83844
C         -2.51737        1.05276        1.53480
N         -3.48060        1.50656        1.95436
C         -1.79287       -0.11605        0.03044
H         -3.58258       -2.23109       -1.83416
H         -1.77653       -3.42653       -0.43771
H          2.55764       -2.57792        0.82744
H          4.59035       -2.52683       -0.26266
H          4.96069       -1.41188       -1.41619
H          0.43007        3.41419        1.49378
H         -1.02382        3.15231        2.22239
