27
Coordinates from ORCA-job ./opt_b97-3c_parallel
N         -4.76062       -2.42911        0.11158
C         -3.75840       -1.88128        0.11026
C         -2.51661       -1.16341        0.06873
C         -1.35263       -2.00747        0.02603
C         -0.02442       -1.75272       -0.04602
C          0.95709       -0.81775        0.00447
C          2.38003       -1.03164        0.02957
C          2.97651       -2.33543        0.06137
N          3.41718       -3.38722        0.08455
C          3.18272        0.08691        0.01302
N          4.51714        0.16230       -0.16174
C          2.16199        1.00662       -0.00462
C          2.61881        2.36716       -0.00563
N          2.40938        3.49052        0.01244
C          0.81579        0.52299       -0.01670
N         -0.15165        1.44715       -0.04131
C         -1.53252        1.29962       -0.00629
N         -2.15393        2.52058       -0.01385
C         -3.51042        2.27697        0.05288
C         -3.77321        0.93641        0.11347
C         -2.56257        0.29597        0.05566
H         -1.60672       -3.06680        0.03182
H          0.44419       -2.72842       -0.15388
H          5.11696       -0.63054        0.06592
H          5.02529        1.01775        0.06036
H         -4.24426        3.09817        0.04434
H         -4.67822        0.53769       -0.34170
