31
Coordinates from ORCA-job ./opt_b97-3c_parallel
N          3.57356       -3.30114        0.05083
C          2.73254       -2.52900        0.03566
C          1.64611       -1.59989        0.01577
C          0.37456       -2.26461        0.02288
C         -0.90226       -1.82714       -0.00895
C         -1.76126       -0.78029       -0.00316
C         -3.13080       -0.99336       -0.00891
C         -3.98010       -2.15295       -0.01785
N         -4.51737       -3.16109       -0.03717
C         -3.78690        0.29020       -0.00523
N         -4.86738        0.54430       -0.00914
C         -2.81669        1.27191        0.00479
C         -3.00043        2.69631        0.01264
N         -3.10923        3.83337        0.02437
C         -1.53214        0.61834        0.00575
C         -0.31570        1.40332        0.01077
C          1.09717        1.06100        0.00044
N          1.91731        2.06760       -0.00514
C          3.18828        1.79826       -0.01625
N          3.90949        2.64254       -0.02319
C          3.20583        0.41549       -0.01546
C          4.51211       -0.17981       -0.03226
N          5.57715       -0.59172       -0.04745
C          1.87388       -0.15109       -0.00104
H          0.46943       -3.35069        0.03801
H         -1.48670       -2.74523       -0.02722
H         -5.62606       -0.13665       -0.02220
H         -5.30541        1.46449       -0.00724
H         -0.47749        2.47691        0.01633
H          4.89194        2.35601       -0.03066
H          3.92567        3.66160       -0.02246
