25
Coordinates from ORCA-job ./opt_b97-3c_parallel
N         -4.42950       -0.03998        1.36577
C         -3.46214       -0.54696        1.03046
C         -2.23558       -1.13891        0.59292
C         -2.08301       -2.37578        0.03823
C         -0.87311       -2.48844       -0.49632
C         -0.17549       -1.34462       -0.24877
C          1.23350       -1.14899       -0.42942
C          2.02668       -2.10189       -1.14693
N          2.68678       -2.85106       -1.70145
C          1.80028       -0.39240        0.65230
N          2.83923       -0.28225        1.02079
N          2.17310        0.84497        0.32070
C          1.33925        1.78042       -0.16741
N          1.76372        3.02256       -0.54429
C          0.59836        3.76621       -0.62518
C         -0.55506        3.13468       -0.23027
C         -0.07590        1.88017        0.00202
N         -1.00001        0.98013        0.52932
C         -1.00854       -0.41214        0.44789
H         -2.85427       -3.14265        0.00425
H         -0.49853       -3.36873       -1.01575
H          2.75048       -1.26351        1.28366
H          3.80537       -0.02387        1.22224
H          0.47290        4.82718       -0.89197
H         -1.49135        3.29312       -0.76200
