33
Coordinates from ORCA-job ./opt_b97-3c_parallel
N         -5.64868        0.77426        0.79245
C         -4.54330        0.67336        0.52142
C         -3.14498        0.56208        0.21324
C         -2.44041        1.72101        0.03029
C         -1.19595        1.23354       -0.26561
C         -0.26276        1.86343       -1.02002
C          0.51098        2.53646       -0.14008
C          1.69228        1.97073        0.42804
C          2.05740        0.58993        0.19132
C          3.41081        0.22080        0.46992
N          4.31822        0.72755        0.84852
C          3.73394       -1.08059        0.17157
C          2.47447       -1.51681       -0.17463
N          2.69369       -2.60095       -0.26665
C          1.39901       -0.55237       -0.21399
C          0.06620       -0.96212       -0.40780
N         -0.15361       -2.03068       -0.60728
C         -1.11186       -0.12920       -0.17271
C         -2.41387       -0.66616        0.10591
N         -2.91229       -1.64616        0.24816
H         -2.86396        2.56495       -0.50918
H         -0.51818        2.29242       -1.98643
H          0.35000        3.59683        0.02877
H          2.39098        2.63900        0.92145
H          5.26358        0.46859        1.12379
H          4.16234        1.67854        1.17566
H          4.61396       -1.30283       -0.44272
H          1.74560       -2.66996        0.09997
H          3.25624       -3.26664        0.26016
H          0.62679       -2.18241       -1.24512
H         -0.99766       -2.03880       -1.17740
H         -3.70048       -2.13716        0.66302
H         -2.07689       -2.19340        0.44838
