28
Coordinates from ORCA-job ./opt_b97-3c_parallel
N         -3.29991       -3.14691        1.55704
C         -2.60885       -2.38045        1.06759
C         -1.73883       -1.44582        0.42061
C         -0.45120       -1.90738       -0.00605
C          0.21830       -1.32802       -1.03321
C          1.13727       -0.58707       -0.37146
C          2.45657       -0.93167       -0.26367
C          3.27778       -2.04954       -0.62075
N          4.40356       -2.24839       -0.63439
C          3.11696        0.20770        0.31804
N          4.00744        0.75325        0.68185
N          2.23255        1.19721        0.54288
C          0.98885        0.72310        0.13955
C         -0.15812        1.50883        0.07689
C          0.07578        2.91579        0.27098
N          0.58470        3.78331       -0.27173
C         -1.52485        1.04827       -0.18225
C         -2.55521        2.02260       -0.37081
C         -3.76308        1.42173       -0.34970
C         -3.56006        0.13165       -0.13360
C         -2.21958       -0.15798       -0.04836
H         -0.16831       -2.90680        0.31708
H          0.47520       -1.89553       -1.92543
H          4.42567        1.68445        0.68080
H          4.77991        0.09535        0.56543
H         -2.41530        3.09691       -0.44014
H         -4.72682        1.91101       -0.47287
H         -4.36228       -0.60149       -0.07448
