28
Coordinates from ORCA-job ./opt_b97-3c_parallel
N          5.25078        0.17934       -0.83643
C          4.12100        0.18221       -0.66418
C          2.70708        0.20736       -0.40918
C          2.05428        1.38807       -0.59990
C          0.81948        1.02859       -0.12955
C         -0.06159        2.04683        0.35288
N         -0.97865        1.83772        1.23066
C         -2.00697        1.78465        0.46136
C         -2.47811        0.54430       -0.05730
C         -3.82873        0.35720       -0.45102
C         -4.05818       -0.97926       -0.53721
C         -2.95086       -1.64313       -0.21460
C         -1.92051       -0.76941        0.05686
C         -0.51199       -1.10780        0.32485
N         -0.45452       -2.20381        0.48514
C          0.64317       -0.33092        0.09168
C          1.89237       -0.90702       -0.02437
N          2.38556       -1.89726        0.06316
H          2.51188        2.33336       -0.31463
H          0.19854        3.11141        0.24531
H         -2.64479        2.68134        0.43117
H         -4.57117        1.14900       -0.45589
H         -5.00943       -1.43524       -0.80040
H         -2.88254       -2.72864       -0.19904
H         -1.16518       -2.92740        0.56661
H          0.11492       -2.43647       -0.32681
H          3.32944       -1.96162        0.43987
H          1.74419       -2.04469        0.84092
