30
Coordinates from ORCA-job ./opt_b97-3c_parallel
N         -4.67596        2.49670       -1.23114
C         -4.02501        1.66782       -0.79109
C         -3.17513        0.65505       -0.24277
C         -3.72165       -0.40400        0.54259
C         -2.84838       -1.28090        1.12435
C         -1.70483       -0.80455        0.53753
C         -0.50249       -1.58069        0.41315
C         -0.36045       -2.83988        1.09247
N         -0.53225       -3.91873        1.42584
C          0.45536       -1.44425       -0.54338
N          0.27917       -2.04212       -1.73599
C          1.47693       -0.74933        0.01581
C          2.61301       -1.59924        0.22485
N          3.50979       -2.29580        0.35477
C          1.45751        0.68118        0.14785
C          2.57538        1.52288        0.47299
C          3.88918        1.12581        0.87559
N          4.94874        0.84589        1.19953
C          2.21725        2.81387        0.23079
C          0.97936        2.85885       -0.24688
C          0.44534        1.60501       -0.27685
C         -0.92798        1.37056       -0.68308
C         -1.83063        0.42300       -0.20544
H         -4.79441       -0.45424        0.70417
H         -3.07971       -2.34374        1.14405
H          1.09559       -2.30957       -2.28327
H         -0.39115       -2.80584       -1.81129
H          2.85815        3.67911        0.38503
H          0.45292        3.77132       -0.51839
H         -1.36960        2.25670       -1.13021
