31
Coordinates from ORCA-job ./opt_b97-3c_parallel
N         -0.95724        4.40892       -0.81877
C         -0.80382        3.31519       -0.52307
C         -0.64467        1.91973       -0.16370
C         -1.93378        1.37501        0.14511
C         -2.28606       -0.01326        0.24161
C         -3.67043       -0.26399        0.46740
C         -3.88868       -1.59153        0.35687
C         -2.73421       -2.16643        0.05788
C         -1.71554       -1.24731       -0.02468
C         -0.48037       -1.77989       -0.34671
C          0.84772       -1.23591       -0.20472
C          1.90862       -2.09982       -0.28554
N          2.13320       -3.16522       -0.47928
C          2.99628       -1.38275        0.09136
C          2.67982       -0.12967        0.39184
N          3.63220        0.66877        0.91062
C          1.32850        0.07645        0.12698
C          0.53044        1.19679       -0.03670
N          1.49477        2.14184       -0.14668
H         -2.76572        2.07348        0.20983
H         -4.42042        0.50875        0.60648
H         -4.84185       -2.09687        0.49081
H         -2.61730       -3.24001       -0.07732
H         -0.46468       -2.84418       -0.56618
H          1.37982       -3.47192       -1.09083
H          2.91459       -3.80003       -0.63162
H          3.99569       -1.79879        0.22754
H          4.42666        0.26543        1.40373
H          3.36819        1.53073        1.38421
H          1.28242        3.10279       -0.40635
H          2.42567        1.90513       -0.48611
