26
Coordinates from ORCA-job ./opt_b97-3c_parallel
N         -4.81963        1.54617       -0.09379
C         -3.72127        1.23019       -0.06359
C         -2.32234        0.85548       -0.02603
C         -1.45565        1.96866       -0.05704
C         -0.06871        2.17598        0.03451
C          1.03416        1.29844        0.08273
C          2.10093        1.57871        0.19063
C          3.12391        0.59753       -0.03151
N          4.39379        1.10030       -0.11328
C          2.15720       -0.46419       -0.04279
C          2.86941       -1.68032        0.21224
N          3.56308       -2.58828        0.19150
C          1.09530       -0.17172       -0.15722
N          0.14700       -0.69092       -0.94708
C         -0.67207       -1.14983        0.00677
C         -1.11150       -2.16309        0.06358
C         -2.51032       -2.44119        0.16722
N         -2.98241       -1.45019        0.20707
C         -2.01596       -0.52367        0.08333
H         -1.98034        2.92196       -0.11470
H          0.18551        3.23342        0.08524
H          2.33047        2.63780        0.28050
H          5.17650        0.45530       -0.08073
H          4.55851        2.06712        0.14281
H         -0.39183       -2.97657        0.02909
H         -3.02534       -3.39328        0.20920
