31
Coordinates from ORCA-job ./opt_b97-3c_parallel
N         -6.00364       -0.20330       -0.76710
C         -4.87571       -0.26125       -0.59444
C         -3.46937       -0.30404       -0.34817
C         -2.77305       -1.43310       -0.00216
C         -1.50253       -0.96161        0.22869
C         -0.52920       -1.50120        1.00016
C          0.26082       -2.17671        0.13467
C          1.51617       -1.64359       -0.32449
N          2.11354       -2.48929       -0.71496
C          1.89025       -0.26817       -0.03109
C          3.20726        0.14139       -0.09078
N          4.20786       -0.29969       -0.26197
C          3.36754        1.49039        0.14548
C          2.08300        1.94633        0.29746
N          2.03848        3.04487        0.41322
C          1.10701        0.91194        0.21279
C         -0.29524        1.28106        0.10748
C         -1.39334        0.36844       -0.06561
C         -2.66666        0.86582       -0.41809
H         -3.21778       -2.19784        0.63171
H         -0.75096       -1.90253        1.98550
H          0.02203       -3.22099       -0.07339
H          2.06225       -3.48957       -0.53224
H          2.80661       -2.11156       -0.07066
H          3.81265       -0.87149       -1.00679
H          5.09360        0.06495       -0.60730
H          4.11091        2.08119       -0.39747
H          1.26819        3.17259        1.06642
H          2.59667        3.89579        0.44011
H         -0.52725        2.34060        0.06078
H         -2.96475        1.88591       -0.64207
