27
Coordinates from ORCA-job ./opt_b97-3c_parallel
N          4.06132        3.03337       -0.08171
C          3.16473        2.32421       -0.07205
C          1.99966        1.47268       -0.04016
C          0.79504        2.24695        0.05372
C         -0.59471        1.94260        0.09339
C         -1.31778        0.70948        0.01961
C         -2.75277        0.80867        0.02533
C         -3.58011        1.97496        0.09072
N         -4.27289        2.88095        0.13670
C         -3.27074       -0.51540       -0.04712
N         -4.16082       -1.17005       -0.07733
N         -2.20823       -1.38690       -0.10290
C         -1.00147       -0.68416       -0.06507
C          0.21876       -1.48077       -0.06212
C         -0.01926       -2.91108       -0.14836
N         -0.25563       -4.02733       -0.21571
C          1.58741       -1.14082       -0.00831
C          2.46844       -2.19341        0.07367
C          3.68709       -1.65570       -0.16971
N          3.59651       -0.28742       -0.14810
C          2.31230        0.10866       -0.05417
H          0.96171        3.32225        0.08841
H         -1.19253        2.84621        0.15607
H         -5.04093       -0.65423       -0.03639
H         -4.41342       -2.15827       -0.04431
H          2.38939       -2.93475        0.86772
H          4.76094       -1.88630       -0.24585
