27
Coordinates from ORCA-job ./opt_b97-3c_parallel
N         -0.26099       -4.56170        0.13430
C         -0.35626       -3.43186       -0.01011
C         -0.82469       -2.08057        0.06755
C         -2.22836       -2.12558       -0.26905
C         -2.67118       -0.83473       -0.35199
C         -1.55121       -0.06371       -0.07544
C         -1.60440        1.35350        0.03109
C         -2.93905        1.92995       -0.02137
N         -3.98656        2.38542       -0.07668
C         -0.52572        2.28163        0.14879
N         -0.85223        3.60874        0.31298
C          0.86997        2.13211        0.01179
C          1.68758        0.99904       -0.11952
N          3.00465        1.08450       -0.35095
C          3.03994       -0.01991       -0.18054
N          4.39965       -0.11209       -0.30052
N          2.60165       -1.02052        0.06246
C          1.41812       -0.40163        0.17894
N          0.47743       -0.66299        1.09818
C         -0.42936       -1.02788        0.18325
H         -2.93132       -2.94101       -0.42848
H         -3.69091       -0.52433       -0.56936
H         -1.82274        3.89443        0.22979
H         -0.13188        4.31483        0.20828
H          1.42683        3.06783       -0.02944
H          4.86441       -0.97993       -0.05965
H          4.95983        0.73266       -0.33672
