24
Coordinates from ORCA-job ./opt_b97-3c_parallel
N          3.75969        0.09813       -0.58142
C          3.48010       -0.99534       -0.76752
C          2.11923       -1.25861       -0.40879
C          1.77738       -2.44601        0.30061
C          0.47684       -2.62922        0.67423
C         -0.03802       -1.48648        0.11162
C         -1.45704       -1.15497        0.19263
C         -2.35408       -2.01169        0.90816
N         -3.08293       -2.66358        1.49765
C         -2.00281       -0.11623       -0.66284
N         -3.03697        0.22460       -0.85418
N         -2.01795        1.15147       -0.19170
C         -0.93004        1.89873        0.11018
N         -0.97490        3.12996        0.71322
C          0.32425        3.61335        0.72004
N          1.15072        2.69446        0.08172
C          0.39604        1.61615       -0.33044
N          0.69616        0.56125       -1.02157
C          0.91880       -0.61681       -0.53062
H          2.54169       -3.17559        0.55597
H         -0.00310       -3.59749        0.53854
H         -3.31627       -0.75401       -0.94139
H         -3.85745        0.76192       -1.14001
H          0.50014        4.60131        1.17850
