31
Coordinates from ORCA-job ./opt_b97-3c_parallel
N          3.44683       -1.67150       -2.20549
C          2.60493       -1.59365       -1.43785
C          1.58154       -1.43554       -0.44998
C          0.54184       -2.40219       -0.32459
C         -0.42542       -2.20211        0.60697
C         -1.50367       -1.42987        0.30122
C         -2.85907       -1.86594        0.36557
C         -3.82299       -0.94723        0.03225
N         -5.02135       -1.55388        0.12669
C         -2.96937        0.10178       -0.23234
C         -3.98011        1.08462       -0.51313
N         -4.23030        2.01230        0.10716
C         -1.55147       -0.12315       -0.11239
C         -0.59900        0.87867       -0.36004
C         -1.06067        2.14162       -0.86649
N         -1.36696        3.16257       -1.27751
C          0.83193        0.73140       -0.10548
N          1.61552        1.87605       -0.26933
C          2.76621        1.52842        0.28521
N          3.17232        2.53967        0.08242
C          2.71800        0.25493        0.76548
C          3.91522       -0.09791        1.46005
N          4.88786       -0.33713        2.00779
C          1.55171       -0.34103        0.37017
H          0.54554       -3.27348       -0.97565
H         -0.45498       -2.83775        1.48995
H         -3.06936       -2.88850        0.67227
H         -5.87260       -0.99594        0.17856
H         -5.14530       -2.36791        0.72649
H          2.93371        3.51431       -0.10667
H          4.18870        2.51536        0.17645
