28
Coordinates from ORCA-job ./opt_b97-3c_parallel
N          3.95430       -3.17296        0.00708
C          3.10983       -2.40178        0.00600
C          1.99933       -1.47423        0.00422
C          0.76956       -2.20858        0.00343
C         -0.60562       -1.86137        0.00220
C         -1.30348       -0.61238        0.00131
C         -2.73959       -0.67087       -0.00197
C         -3.55196       -1.85276       -0.00717
N         -4.21860       -2.78065        0.01232
C         -3.25883        0.57973       -0.00548
N         -4.55504        0.93289       -0.01723
C         -2.24365        1.42984       -0.00280
C         -1.01802        0.79280       -0.00045
C          0.23366        1.54366       -0.00450
C          0.04711        2.97508       -0.01190
N         -0.11442        4.10590        0.00973
C          1.63205        1.09330       -0.00180
C          2.62976        2.03630       -0.00347
C          3.87869        1.51673        0.00085
N          3.64441        0.16485        0.00388
C          2.32207       -0.10968        0.00234
H          0.88994       -3.29026        0.00429
H         -1.22298       -2.75199        0.00249
H         -5.31682        0.25578        0.00148
H         -4.89156        1.89307        0.00270
H         -2.40780        2.50450       -0.00637
H          2.50227        3.11508       -0.00030
H          4.90732        1.90750        0.00118
