29
Coordinates from ORCA-job ./opt_b97-3c_parallel
N         -3.45966        2.69938        2.12222
C         -2.73460        2.20656        1.38893
C         -1.85519        1.59938        0.44123
C         -0.89617        2.38425       -0.27592
C         -0.26483        1.90313       -1.38358
C          0.88539        1.55755       -0.74767
C          1.98988        2.35885       -0.85661
C          2.94500        1.63193       -0.18765
N          3.92543        2.13594       -0.27026
C          2.48805        0.46242        0.37984
C          3.29944       -0.47336        1.10144
N          3.98316       -1.19886        1.66057
C          1.09998        0.37926        0.02961
C          0.19577       -0.75002        0.25395
C          0.67669       -1.94017        0.89228
N          1.02424       -2.88501        1.43367
C         -1.18903       -0.72483       -0.23815
C         -1.90978       -1.91569       -0.57765
C         -1.43669       -3.24876       -0.83246
N         -1.07374       -4.30596       -1.07029
C         -3.26050       -1.50414       -0.76238
N         -2.69101       -0.60842       -0.42665
C         -2.17351        0.34080       -0.17396
H         -0.75668        3.41487        0.04308
H         -0.25021        2.47312       -2.31028
H          1.90133        3.43811       -0.72670
H          4.51796        1.31128       -0.18290
H          4.47259        2.83651       -0.76738
H         -4.03165       -2.22194       -1.08087
