26
Coordinates from ORCA-job ./opt_b97-3c_parallel
N         -5.79338       -0.67302        0.28852
C         -4.66957       -0.47165        0.26926
C         -3.26234       -0.23008        0.20558
C         -2.72352        1.07873        0.25551
C         -1.34127        0.84336        0.06699
C         -0.51494        1.99241       -0.07976
N          0.66474        1.94829       -0.57000
C          1.85114        1.61755       -0.22832
C          2.26076        0.26394       -0.05956
C          3.58503       -0.08886        0.04682
N          4.56702        0.41699        0.05968
C          3.61417       -1.45637        0.07917
C          2.38907       -1.96043       -0.00913
C          1.48784       -0.94424       -0.08767
C          0.13370       -1.27503       -0.13684
C         -1.10674       -0.51648       -0.04318
C         -2.30567       -1.18915        0.02851
H         -3.24944        2.02550        0.33341
H         -0.73690        3.06906       -0.02672
H          2.45890        2.53424       -0.25043
H          4.42475        1.36188       -0.29053
H          5.43076        0.07554       -0.35838
H          4.51459       -2.06397        0.16061
H          2.15236       -3.02216       -0.00069
H         -0.05671       -2.34429       -0.17184
H         -2.38191       -2.14651        0.53951
