26
Coordinates from ORCA-job ./opt_b97-3c_parallel
N         -5.18264       -1.30703       -0.05493
C         -4.41180       -0.46450       -0.01288
C         -3.08660        0.07400       -0.02537
C         -3.03747        1.48549       -0.09548
C         -1.80306        2.05115       -0.08697
C         -0.98123        0.93810       -0.04995
C          0.46739        1.14333       -0.05890
C          0.86746        2.52874       -0.11514
N          1.22319        3.61429       -0.14703
C          1.55874        0.16385       -0.02308
C          2.89633        0.69985       -0.00964
C          3.79837       -0.39461        0.00332
N          4.89634       -0.51563        0.01267
N          3.05136       -1.54869        0.00284
C          1.74620       -1.20705       -0.00781
C          0.92520       -2.30958       -0.00281
C         -0.48507       -2.46713        0.02541
N         -1.56742       -1.63302        0.03106
C         -1.76528       -0.27377       -0.00461
H         -3.94185        2.08692       -0.13237
H         -1.63064        2.91899        0.54664
H          3.22052        1.73671       -0.00809
H          5.44706       -1.37383        0.01000
H          5.56869        0.25048       -0.02509
H          1.40801       -3.28408       -0.00163
H         -1.05404       -3.40937        0.04610
