31
Coordinates from ORCA-job ./opt_b97-3c_parallel
N         -1.47835        3.90115       -0.28179
C         -0.61400        3.16831       -0.42681
C          0.49391        2.27860       -0.58359
C          1.65750        2.56800       -1.22356
C          2.51368        1.57342       -1.05350
C          1.92516        0.58368       -0.31989
C          2.62999       -0.60150        0.16251
C          4.05402       -0.68367        0.03448
N          5.18646       -0.75773       -0.10024
C          1.94873       -1.76638        0.68592
N          2.06370       -2.78138        1.10172
N          0.70663       -2.10133        0.53987
C         -0.50658       -1.87005        0.15548
C         -1.38473       -2.73424       -0.43179
C         -2.46997       -1.91868       -0.65454
N         -3.30371       -2.43144       -1.16757
C         -2.32207       -0.62008       -0.21811
C         -3.18404        0.52013       -0.26709
N         -3.88759        1.41763       -0.33503
C         -1.01715       -0.56799        0.33951
C         -0.33929        0.46986        0.90753
C         -0.43833        0.71809        1.98083
N         -0.85030        1.24037        2.91057
C          0.58392        0.99140        0.04512
H          1.86045        3.48376       -1.77438
H          3.52171        1.55090       -1.46185
H          1.73602       -3.54654        1.68773
H          3.07103       -2.71529        1.23416
H         -1.50148       -3.74457       -0.04094
H         -4.19377       -1.93719       -1.12496
H         -3.49823       -3.35711       -1.54519
