33
Coordinates from ORCA-job ./opt_b97-3c_parallel
N          5.30497       -0.27640        1.90606
C          4.33364       -0.54643        1.36820
C          3.12338       -0.92328        0.70603
C          2.90703       -2.29319        0.40018
C          1.78485       -2.57103       -0.32320
C          1.16382       -1.34265       -0.38807
C         -0.21640       -1.24315       -0.87742
C         -0.71322       -2.37328       -1.61314
N         -1.07164       -3.27462       -2.21793
C         -1.16383       -0.27668       -0.31173
C         -2.54802       -0.57503       -0.00902
C         -3.18233       -1.86374       -0.00126
N         -3.69961       -2.88230        0.04486
C         -3.29222        0.43200        0.57622
N         -4.63074        0.55844        0.67603
C         -2.30533        1.38644        0.65044
C         -2.67628        2.67877        1.15064
N         -2.87399        3.77135        0.88129
C         -1.03878        1.00454        0.12425
C          0.00266        1.95804       -0.08917
C          1.08982        1.71731       -0.86177
N          0.91553        2.39889       -2.00589
C          1.93598        1.04876       -0.03393
C          2.86140        2.08746        0.33263
N          3.84390        2.62597        0.10280
C          2.00239       -0.37676        0.14499
H          3.63826       -3.04534        0.68170
H          1.22678       -3.48140       -0.11296
H         -5.03870        1.30573        1.23492
H         -5.21930       -0.26833        0.76893
H         -0.13001        2.96179        0.30565
H          1.73118        2.77225       -2.48937
H          0.18561        3.10722       -2.06191
