30
Coordinates from ORCA-job ./opt_b97-3c_parallel
N         -3.62542        3.33030        0.03031
C         -2.78191        2.56061        0.02261
C         -1.68949        1.63431        0.01005
C         -0.41172        2.29816        0.02083
C          0.86838        1.85576       -0.01273
C          1.72220        0.80136        0.00052
C          3.16281        0.83074        0.01034
C          3.92406        2.04493        0.02833
N          4.49530        3.03389        0.04415
C          3.81467       -0.38063        0.00123
N          5.12596       -0.64347       -0.17255
C          2.68401       -1.16102        0.00645
C          2.96415       -2.56801        0.01590
N          2.75096       -3.69068       -0.00687
C          1.40873       -0.51058       -0.00123
N          0.32622       -1.30244       -0.00835
C         -1.02605       -0.97254       -0.01543
N         -1.75075       -2.14826       -0.02454
C         -3.09122       -1.82817       -0.02628
N         -3.77597       -2.70207       -0.03175
C         -3.23423       -0.40233       -0.01841
C         -4.53797        0.19322       -0.01773
N         -5.60035        0.60867       -0.01709
C         -1.90095        0.18218       -0.00971
H         -0.50410        3.38441        0.03813
H          1.46702        2.76353       -0.05042
H          5.50849       -1.56257        0.04739
H          5.83354        0.05632        0.05112
H         -3.79682       -3.72354       -0.03264
H         -4.75973       -2.41974       -0.02971
