29
Coordinates from ORCA-job ./opt_b97-3c_parallel
N          4.73701       -2.25730        1.26440
C          4.03997       -1.38970        1.00405
C          3.17642       -0.30945        0.63782
C          3.51262        1.00593        0.56742
C          2.52937        1.69447        0.00151
C          1.46546        0.87375       -0.26423
C          0.13905        1.36903       -0.65262
C          0.06428        2.75020       -1.04061
N         -0.00290        3.85699       -1.31834
C         -1.13021        0.72538       -0.29096
C         -2.27351        1.45521       -0.07614
C         -3.18051        0.53732        0.39909
N         -4.17667        0.96943        0.60212
C         -2.70930       -0.75491        0.45620
C         -3.35957       -1.98535        0.79355
N         -3.88207       -2.97421        1.03102
C         -1.37100       -0.65680       -0.01535
C         -0.61647       -1.80358       -0.41809
C          0.42116       -1.67044       -1.27561
C          1.33824       -1.68126       -0.27912
C          1.87116       -0.46461        0.07268
H          4.46643        1.42362        0.88097
H          2.57355        2.76434       -0.18878
H         -2.22069        2.45271        0.36055
H         -4.60011        1.81984        0.23625
H         -4.86732        0.22782        0.49829
H         -1.02199       -2.78901       -0.20550
H          0.52278       -2.32935       -2.13461
H          1.82449       -2.61289       -0.00048
