31
Coordinates from ORCA-job ./opt_b97-3c_parallel
N         -4.25371        2.40800       -0.91544
C         -4.19285        1.28659       -1.13344
C         -3.36506        0.30930       -0.49638
C         -3.97542       -0.59261        0.42790
C         -3.18209       -1.45647        1.13805
C         -1.97819       -1.10863        0.58112
C         -0.81139       -1.93896        0.77145
C          0.09948       -2.11557       -0.34426
N          0.16258       -3.20960       -0.52718
C          1.17089       -1.24891       -0.55457
C          2.38599       -1.72480       -1.16498
N          3.28086       -2.26611       -1.62655
C          1.14841        0.11263       -0.06506
C          2.32258        0.91332        0.11361
C          3.74852        0.74174        0.12726
N          4.53783        0.31788        0.83765
C          1.94397        2.21404        0.29073
N          2.63505        3.35237        0.48494
C          0.61787        2.22006        0.20251
C          0.08825        0.97814       -0.00294
C         -1.01360        0.78245       -0.89765
C         -2.05822       -0.04627       -0.37201
H         -5.04630       -0.55061        0.60592
H         -3.46868       -2.49975        1.25011
H         -1.04656       -2.81205        1.38250
H         -0.37206       -4.06530       -0.66442
H          1.14108       -3.48779       -0.45990
H          2.18644        4.16258        0.90775
H          3.60092        3.31718        0.80660
H          0.00953        3.11778        0.29356
H         -1.36503        1.65910       -1.43391
