31
Coordinates from ORCA-job ./opt_b97-3c_parallel
N         -3.62606       -2.72607        0.73291
C         -3.09518       -1.72746        0.56927
C         -2.45363       -0.46635        0.33265
C         -3.25465        0.71496        0.33215
N         -4.31835        0.97288        0.49626
C         -2.58522        1.86645        0.02938
C         -1.28857        1.42863       -0.04273
C         -0.28788        2.34300       -0.53977
C          1.02971        2.31595        0.02282
N          1.67575        3.17519       -0.23810
N          1.32950        1.58858        1.04661
C          1.79468        0.48199        0.58263
C          3.18996        0.21335        0.72368
C          3.50583       -1.00713        0.23320
N          4.68358       -1.64891        0.21870
C          2.37375       -1.50595       -0.23577
C          1.31821       -0.64898       -0.03430
C         -0.10986       -0.90337       -0.19442
C         -0.30773       -2.28554       -0.53929
N         -0.53182       -2.84273       -1.51265
C         -1.19882        0.04278        0.08946
H         -4.96600        1.55842        1.02013
H         -4.67742        0.02083        0.54423
H         -2.96979        2.58816       -0.69259
H         -0.61001        3.25580       -1.03698
H          2.67740        3.35572       -0.24450
H          1.21685        4.03924       -0.51930
H          3.87800        0.90631        1.19879
H          4.82391       -2.46626       -0.37202
H          5.55912       -1.13229        0.27444
H          2.30277       -2.48862       -0.69749
