27
Coordinates from ORCA-job ./opt_b97-3c_parallel
N         -3.23384        4.08693       -0.00130
C         -2.49265        3.21682       -0.00588
C         -1.53197        2.15037       -0.00356
C         -0.16307        2.59315       -0.00367
C          1.01898        1.93169        0.00167
C          1.62279        0.71750       -0.00281
C          2.99810        0.59017       -0.00802
C          4.17591        1.40557       -0.00963
N          4.70919        2.41526       -0.00140
C          3.39441       -0.72321       -0.03147
C          2.23969       -1.44384       -0.00445
C          2.15878       -2.87343       -0.00053
N          2.06160       -4.01247       -0.00057
C          1.10066       -0.59072       -0.00001
N         -0.17525       -1.10656        0.00481
C         -1.35810       -0.46823        0.00246
C         -2.41632       -1.42780        0.00281
C         -2.56322       -2.85406        0.00389
N         -2.33826       -3.97495        0.00344
C         -3.60660       -0.79404        0.00069
C         -3.35792        0.50265       -0.00127
C         -2.00475        0.76903       -0.00086
H         -0.07316        3.67765       -0.00608
H          1.78897        2.70041        0.00506
H          4.40722       -1.12186        0.02554
H         -4.59296       -1.25474        0.00083
H         -4.15124        1.24599       -0.00296
