26
Coordinates from ORCA-job ./opt_b97-3c_parallel
N         -4.55683        0.65353        1.16101
C         -3.48685        0.90261        0.84877
C         -2.15020        1.25335        0.47783
C         -1.82157        2.55155        0.23346
C         -0.57615        2.62172       -0.21239
C         -0.02245        1.37482       -0.20545
C          1.40107        1.14121       -0.27600
C          2.31629        2.14206       -0.74033
N          3.06008        2.91159       -1.13880
C          2.06987        0.04153        0.18706
N          2.92602        0.10127        1.19552
C          3.46139       -1.11725        1.11952
N          2.91539       -1.90617        0.14457
C          1.95873       -1.13839       -0.48250
N          0.95590       -1.37909       -1.27078
C         -0.12117       -1.81939       -0.69465
N         -0.06818       -2.88064       -1.01731
C         -1.08634       -1.06699        0.08985
C         -2.19152       -1.81619        0.61261
N         -3.04675       -2.45748        1.01466
C         -1.02849        0.40044        0.16149
H         -2.49247        3.40134        0.34629
H         -0.07288        3.54336       -0.50022
H          4.23176       -1.19989        1.90342
H         -1.07578       -2.91681       -1.17421
H          0.29522       -3.77991       -1.33249
