31
Coordinates from ORCA-job ./opt_b97-3c_parallel
N          1.12470       -4.36026        0.63098
C          1.52872       -3.29559        0.53342
C          2.04838       -1.96716        0.37119
C          3.37216       -1.72395        0.18303
C          3.54729       -0.42875       -0.00370
C          2.33771        0.19570        0.07384
C          2.11241        1.60846       -0.21572
C          3.19566        2.40492       -0.71560
N          4.07064        3.04195       -1.08163
C          0.82542        2.24915        0.00808
N          0.45085        3.27821       -0.15854
C         -0.23093        1.80317        0.75474
C         -1.12535        0.86281        0.31938
C         -2.43363        1.15068        0.02033
C         -3.04179        2.44759        0.06638
N         -3.66150        3.37034        0.33224
C         -3.05628       -0.09674       -0.32602
N         -4.11836       -0.23035       -0.60777
C         -2.11398       -1.10134       -0.23331
C         -2.24039       -2.51020       -0.46130
N         -2.37074       -3.63377       -0.62565
C         -0.86159       -0.53470        0.17716
N          0.17474       -0.84061        0.40808
C          1.27335       -0.74848        0.31479
H          4.15998       -2.47385        0.18560
H          4.50890        0.05206       -0.16980
H         -0.33126        3.92285       -0.26129
H          1.29700        3.81406       -0.34671
H         -0.23352        2.02322        1.82317
H         -4.85263        0.43219       -0.36293
H         -4.51540       -1.16318       -0.50547
