28
Coordinates from ORCA-job ./opt_b97-3c_parallel
N          3.18166        2.28258        1.94758
C          2.42227        1.75201        1.27813
C          1.44148        1.12501        0.44568
C          0.37449        1.94020       -0.05548
C         -0.40084        1.56898       -1.10567
C         -1.46751        1.19156       -0.35791
C         -2.58494        1.94969       -0.13307
C         -3.49757        1.02779        0.32930
N         -4.50250        1.44307        0.52735
C         -3.01265       -0.25784        0.44655
C         -3.62859       -1.48792        0.84493
N         -4.12649       -2.47565        1.13148
C         -1.65542       -0.15178        0.03891
C         -0.79153       -1.28338       -0.19165
C          0.63008       -1.23439       -0.48036
N          1.25637       -2.33845       -0.75378
C          2.54299       -2.26031       -0.56236
C          2.77359       -0.98768       -0.12701
C          4.10935       -0.54784        0.13485
N          5.18912       -0.21952        0.31522
C          1.57230       -0.22221       -0.09074
H          0.33036        2.96378        0.31010
H         -0.51984        2.21749       -1.97055
H         -2.86874        2.74060       -0.82660
H         -5.11922        2.23692        0.36569
H         -5.09664        0.61898        0.60156
H         -1.24323       -2.27044       -0.16053
H          3.15288       -3.15321       -0.76570
