28
Coordinates from ORCA-job ./opt_b97-3c_parallel
N         -5.12417        0.50962        1.39817
C         -4.09094        0.74228        0.97128
C         -2.77923        0.99809        0.45830
C         -2.42343        2.35524        0.23049
C         -1.20728        2.57626       -0.33816
C         -0.70062        1.30100       -0.30433
C          0.72591        1.08400       -0.44281
C          1.63420        2.08420       -0.91797
N          2.39479        2.84299       -1.30410
C          1.43099       -0.02658       -0.06149
C          2.56000       -0.23346        0.69002
C          3.03054        0.64038        1.72482
N          4.04867        1.13361        1.56373
C          3.23019       -1.37475        0.33249
N          4.12603       -1.98724        0.55919
N          2.47405       -1.97641       -0.63899
C          1.37752       -1.15454       -0.83927
N          0.31446       -1.33661       -1.55898
C         -0.66356       -1.79742       -0.84580
C         -1.62076       -1.06864       -0.04480
C         -2.61987       -1.91709        0.52890
N         -3.38387       -2.63654        0.97845
C         -1.65022        0.33497        0.03283
H         -3.12419        3.15365        0.46053
H         -0.61660        3.44027       -0.03837
H          4.46462       -2.89199        0.89413
H          4.89672       -1.33541        0.72879
H         -0.72733       -2.89175       -0.96018
