29
Coordinates from ORCA-job ./opt_b97-3c_parallel
N          3.33394       -3.78800        0.02293
C          2.54076       -2.96665        0.00891
C          1.57745       -1.90409        0.00314
C          0.21758       -2.33415        0.00600
C         -0.94144       -1.64361        0.00516
C         -1.64696       -0.48463        0.00028
C         -3.08346       -0.41337        0.00022
C         -3.99698       -1.51978        0.00570
N         -4.75023       -2.37862        0.00978
C         -3.46826        0.88137       -0.00364
N         -4.70534        1.39643       -0.00814
C         -2.36007        1.59870       -0.00919
C         -1.21375        0.82760       -0.00593
C          0.15202        1.35040       -0.00836
C          0.11478        2.79557       -0.01481
N          0.16634        3.93728       -0.02058
C          1.43727        0.78113       -0.00641
N          2.51745        1.65742       -0.00948
C          3.71890        0.98189       -0.00777
N          4.72955        1.42034       -0.00980
N          3.41056       -0.35886       -0.00334
C          2.03873       -0.52751       -0.00218
H          0.11542       -3.41880        0.01124
H         -1.67475       -2.44833        0.00985
H         -4.91224        2.39172       -0.01195
H         -5.54808        0.82319       -0.00465
H         -2.39063        2.68479       -0.01435
H          5.60722        0.90133       -0.00683
H          4.98038        2.40870       -0.01333
