29
Coordinates from ORCA-job ./opt_b97-3c_parallel
N          4.15556        2.78701        1.49571
C          3.56862        1.89764        1.08251
C          2.86644        0.75678        0.57146
C          3.59435       -0.43267        0.30275
C          2.87617       -1.46530       -0.21984
C          1.60991       -0.92492       -0.22224
C          0.44180       -1.69884       -0.63333
C          0.70659       -3.01129       -1.15572
N          0.92896       -4.06386       -1.54442
C         -0.95216       -1.37460       -0.29271
C         -1.89143       -2.36740       -0.19178
C         -2.98127       -1.90671        0.38815
C         -2.82726       -0.58027        0.60907
C         -3.86929        0.15626        1.26076
N         -4.70519        0.71463        1.80414
C         -1.54515       -0.10806        0.12291
C         -1.12227        1.20512        0.01550
C         -1.86673        2.04498       -0.00678
N         -2.64208        2.88114       -0.11726
C         -0.01338        1.77764       -0.56777
N          0.53014        2.36248       -1.34811
N          0.85163        1.41992        0.33219
C          1.60057        0.37743        0.20659
H          4.66038       -0.48677        0.50266
H          3.05585       -2.47864        0.13372
H         -1.77203       -3.40353       -0.50028
H         -3.87572       -2.48783        0.60308
H          1.17791        3.14192       -1.24707
H         -0.38363        2.76980       -1.54081
