25
Coordinates from ORCA-job ./opt_b97-3c_parallel
N         -5.35933        0.32280        1.15042
C         -4.31078        0.02253        0.80963
C         -3.00796       -0.39410        0.38853
C         -2.69751       -1.76694        0.25057
C         -1.45920       -2.02262       -0.24791
C         -0.89730       -0.76288       -0.32231
C          0.55316       -0.63286       -0.58759
C          1.18427       -1.82218       -1.09118
N          1.64678       -2.77679       -1.51762
C          1.40868        0.49786       -0.15496
C          2.78911        0.30224        0.22663
C          3.60011       -0.87172        0.34810
N          4.27053       -1.78845        0.47692
C          3.24812        1.57791        0.67385
N          2.24306        2.51393        0.55293
C          1.19701        1.85306        0.04268
C          0.10409        2.58739       -0.32982
C         -0.87117        1.89532       -1.07950
N         -1.88507        1.53028       -0.25245
C         -1.86143        0.20909       -0.04495
H         -3.43283       -2.53415        0.47427
H         -0.90423       -2.87831        0.13090
H          4.24466        1.81110        1.07820
H         -0.00021        3.64965       -0.11511
H         -1.46831        2.81980       -1.09724
