30
Coordinates from ORCA-job ./opt_b97-3c_parallel
N         -5.79034       -0.03898       -0.26820
C         -4.65035       -0.08236       -0.29062
C         -3.21345       -0.12478       -0.27791
C         -2.56287       -1.25434       -0.67654
C         -1.27270       -0.90427       -0.36967
C         -0.26615       -1.91087       -0.28032
N          0.75511       -1.80908        0.49251
C          1.95944       -1.38623        0.38163
N          2.54176       -2.29073        0.62950
C          2.25460       -0.03515        0.03129
C          3.59379        0.46229       -0.04095
N          4.62815        0.08833        0.05572
C          3.51213        1.81350       -0.21577
C          2.24011        2.19778       -0.22585
C          1.41465        1.12225       -0.08345
C         -0.01762        1.28906        0.10823
C         -1.11377        0.42919       -0.02610
C         -2.37086        0.97209        0.08552
N         -2.76428        1.96984        0.36443
H         -2.95425       -2.24252       -0.44166
H         -0.51337       -2.94559       -0.55886
H          2.49351       -3.18654        1.10899
H          3.05027       -1.65821        1.24713
H          4.51042       -0.91858       -0.03862
H          5.48242        0.33760       -0.43822
H          4.35633        2.49252       -0.33306
H          1.90791        3.22368       -0.36877
H         -0.25666        2.34114        0.22741
H         -3.75474        2.17889        0.47828
H         -2.25540        2.59950        0.98304
