30
Coordinates from ORCA-job ./opt_b97-3c_parallel
N          4.00973       -1.59392       -1.11794
C          3.04856       -1.04105       -0.84096
C          1.86603       -0.33552       -0.44610
C          1.63603        1.01801       -0.88059
C          0.63790        1.92366       -0.34321
C          0.78123        3.26758       -0.49522
C         -0.20868        3.86115        0.15172
C         -1.02504        2.98344        0.71569
C         -0.60054        1.72336        0.39331
C         -1.51096        0.57769        0.37393
N         -2.56253        0.70636        0.70036
C         -1.17848       -0.68570       -0.24332
C         -2.11956       -1.69911       -0.61179
N         -3.11553       -2.13919       -0.77442
N         -1.13081       -2.21476       -0.76780
C         -0.09576       -2.63795       -0.63305
C          0.08350       -1.27213       -0.26018
C          1.10086       -0.83442        0.65590
N          1.22091       -1.22092        1.68446
H          2.39857        1.45194       -1.52093
H          1.57433        3.77018       -1.04441
H         -0.33704        4.93931        0.21092
H         -1.90886        3.23705        1.29647
H         -2.60732       -0.10989        1.30830
H         -2.56233        1.51994        1.31211
H         -4.06649       -2.48867       -0.87080
H         -3.18747       -1.18446       -0.42671
H         -0.10021       -3.71230       -0.86752
H          2.11241       -1.65975        1.45968
H          0.51959       -1.96012        1.66622
