34
Coordinates from ORCA-job ./opt_b97-3c_parallel
N          6.17064        0.22786        0.26723
C          5.04531        0.09147        0.11484
C          3.62531       -0.05834       -0.03331
C          3.01416       -1.20549        0.56038
C          1.61221       -1.13333        0.32564
C          0.86004       -2.22698        0.90866
C         -0.48264       -2.57589        0.54402
C         -0.96500       -2.01830       -0.67732
N         -1.33942       -2.65445       -1.49613
C         -1.60737       -0.91804       -0.02973
C         -2.98389       -0.93722        0.32791
C         -3.38339        0.43406        0.47248
C         -4.73640        0.71891        0.84436
N         -5.81076        0.93999        1.17395
C         -2.30039        1.23982        0.14161
N         -2.48088        2.33285        0.16936
C         -1.18876        0.36406       -0.15621
C          0.11238        0.80698       -0.62538
N          0.12419        1.83535       -1.03875
C          1.34056        0.04056       -0.36405
C          2.61230        0.69925       -0.60286
N          3.00388        1.64261       -1.03592
H          3.53376       -1.99200        1.09976
H          1.37053       -2.89973        1.59106
H         -0.92464       -3.45048        1.01411
H         -2.23670       -2.24200       -1.73930
H         -1.50044       -3.65030       -1.35577
H         -3.62332       -1.81066        0.40652
H         -3.09330        3.14729        0.17922
H         -1.53864        2.67344       -0.01302
H         -0.73222        1.82282       -1.58971
H          0.88791        1.66479       -1.69268
H          2.21573        2.12061       -0.60132
H          3.84444        2.12969       -0.72889
