26
Coordinates from ORCA-job ./opt_b97-3c_parallel
N          4.19551        2.52340       -0.11673
C          3.24268        1.89173       -0.09284
C          2.02235        1.11220       -0.06338
C          0.85822        1.90893       -0.09884
C         -0.52237        1.67621        0.02128
C         -1.28946        0.49546        0.09110
C         -2.38223        0.38379        0.23517
C         -3.51736        1.24984        0.36977
N         -4.09882        2.21755        0.18776
C         -3.08705       -0.86629        0.13430
N         -4.15530       -1.72151        0.12987
C         -1.81471       -1.49701       -0.06869
C         -0.88534       -0.91071       -0.19208
N          0.14476       -1.09074       -1.02860
C          1.05803       -1.29876       -0.07024
C          1.79389       -2.11321        0.06415
C          3.20577       -1.97656        0.24365
N          3.34020       -0.88619        0.22378
C          2.14492       -0.29437        0.05419
H          1.06454        2.97640       -0.16853
H         -1.09518        2.59951        0.08601
H         -4.02574       -2.66495       -0.21808
H         -5.08900       -1.32546        0.09531
H         -1.60706       -2.52978        0.19971
H          1.33310       -3.09662        0.04930
H          3.96289       -2.74072        0.37288
