26
Coordinates from ORCA-job ./opt_b97-3c_parallel
N          5.01460       -2.25413        0.00165
C          4.25627       -1.39866        0.00066
C          3.26978       -0.36085       -0.00044
C          3.57351        0.95493       -0.00183
C          2.45340        1.65345       -0.00242
C          1.34527        0.83494       -0.00099
C         -0.00597        1.41700       -0.00098
C         -0.06021        2.85962       -0.00198
N         -0.07129        4.00302       -0.00251
C         -1.31926        0.77194       -0.00022
N         -2.45772        1.57089       -0.00100
C         -3.62468        0.94290       -0.00030
C         -3.24439       -0.36541        0.00103
C         -4.23000       -1.40209        0.00266
N         -4.99263       -2.25370        0.00435
C         -1.83143       -0.55239        0.00112
C         -1.26016       -1.85713        0.00282
C          0.04205       -2.19385        0.00390
C          1.33569       -1.81542        0.00227
C          1.84184       -0.53220        0.00030
H          4.57722        1.37335       -0.00259
H          2.45671        2.74056       -0.00365
H         -4.55062        1.53800       -0.00078
H         -1.97043       -2.67793        0.00393
H          0.05738       -3.28293        0.00621
H          2.04052       -2.64085        0.00325
