30
Coordinates from ORCA-job ./opt_b97-3c_parallel
N          2.93210       -4.13627        0.40896
C          2.83357       -3.00915        0.24727
C          2.68839       -1.59347        0.07786
C          3.75873       -0.81702       -0.20709
C          3.35685        0.43106       -0.34832
C          2.00502        0.53744       -0.14173
C          1.37977        1.86213       -0.15975
C          2.16766        3.03619       -0.40886
N          2.80561        3.97118       -0.56971
C          0.00470        2.09230        0.15539
N         -0.74599        2.89210        0.28718
N         -0.85220        1.19051        0.44125
C         -1.60274        0.17132        0.25129
C         -2.95001        0.01863        0.08896
C         -3.93559        1.05443        0.00100
N         -4.82611        1.43891       -0.60307
C         -3.10417       -1.39944        0.04883
N         -4.00800       -2.02988       -0.05162
C         -1.98914       -2.17720        0.19733
C         -1.07989       -1.14857        0.24421
C          0.26217       -1.49623        0.28084
C          1.47562       -0.81065        0.11532
H          4.77982       -1.16872       -0.33884
H          4.03040        1.24216       -0.61484
H          0.00825        3.40873        0.73538
H         -1.61032        3.17937        0.74188
H         -4.36215       -2.98464       -0.05619
H         -4.74530       -1.43871       -0.43314
H         -1.80929       -3.05322       -0.42604
H          0.37602       -2.56916        0.38737
