28
Coordinates from ORCA-job ./opt_b97-3c_parallel
N          4.79898       -2.07149        0.82697
C          4.16541       -1.16037        0.54503
C          3.40233       -0.01243        0.16445
C          3.94126        1.13815       -0.31598
C          2.96841        1.95630       -0.68464
C          1.75043        1.39403       -0.42770
C          0.58770        2.23915       -0.42037
C         -0.73045        1.99819        0.14901
N         -1.06292        3.05539        0.27405
C         -1.50144        0.84352        0.28926
C         -2.86176        1.12115        0.69984
N         -3.80288        1.44375        1.26305
C         -1.32803       -0.50011       -0.03249
C         -2.36053       -1.38177       -0.25637
C         -3.75358       -1.70635       -0.41883
N         -4.66355       -1.35671       -1.01218
C         -1.80505       -2.69344       -0.36631
N         -0.84284       -2.16383       -0.19940
C         -0.14744       -1.30794       -0.08733
C          1.15992       -1.05659        0.43204
C          1.96778        0.08882        0.12099
H          5.00467        1.35220       -0.39152
H          3.12508        2.95308       -1.09171
H          0.86273        3.26013       -0.71188
H         -0.66472        3.98539        0.38648
H         -2.06682        3.15199        0.42218
H         -2.09670       -3.74569       -0.51356
H          1.69981       -1.95718        0.70898
