30
Coordinates from ORCA-job ./opt_b97-3c_parallel
N          4.66394        1.69947        1.73876
C          3.65620        1.64667        1.20525
C          2.37800        1.60872        0.56315
C          1.80673        2.82839        0.10804
C          0.63959        2.71960       -0.59049
C          0.35568        1.37824       -0.46192
C         -0.95514        0.85172       -0.84513
C         -1.75753        1.69673       -1.68436
N         -2.36159        2.38179       -2.37099
C         -1.60739       -0.14592        0.01036
C         -2.98279       -0.04700        0.42648
C         -3.95633        0.98828        0.24545
N         -4.74261        1.80991        0.14413
C         -3.20946       -1.18901        1.26267
N         -2.07385       -1.97781        1.32736
C         -1.18211       -1.32144        0.57628
C          0.02859       -2.02730        0.26238
C          0.35363       -3.35599        0.71058
N          0.25840       -4.47523        0.49618
C          0.99941       -1.61952       -0.59911
N          1.19303       -1.99703       -1.87618
C          1.70037       -0.68270        0.10137
C          2.89159       -1.35450        0.54926
N          3.96086       -1.67443        0.30084
C          1.42388        0.72970        0.12856
H          2.32331        3.77126        0.26249
H         -0.12941        3.48051       -0.47178
H         -4.14295       -1.43325        1.79181
H          0.83010       -2.89851       -2.18321
H          2.12331       -1.90442       -2.28169
