26
Coordinates from ORCA-job ./opt_b97-3c_parallel
N         -4.88576        1.82414        0.01668
C         -3.81347        1.42748        0.01602
C         -2.44975        0.97350        0.01075
C         -1.47106        2.02446        0.01597
C         -0.11673        2.01146       -0.00689
C          1.02603        1.28811       -0.00168
C          2.35889        1.81504       -0.00535
C          3.39657        0.91154       -0.01202
N          4.65367        1.36078       -0.16569
C          2.62616       -0.22488        0.00243
C          3.48351       -1.37297        0.01113
N          3.88988       -2.44046        0.04212
C          1.21178       -0.04739        0.00332
C          0.36028       -1.20089        0.00644
C         -1.01897       -1.30700        0.00235
N         -1.47127       -2.60706       -0.00056
C         -2.85118       -2.60441       -0.00380
N         -3.28118       -1.29368       -0.00205
C         -2.18152       -0.45854        0.00145
H         -1.91900        3.01556        0.02580
H          0.18196        3.05776       -0.02950
H          2.51176        2.88996       -0.00789
H          4.91942        2.28511        0.16685
H          5.43886        0.73012       -0.00710
H          0.89759       -2.14540        0.00842
H         -3.50209       -3.49171       -0.00588
