28
Coordinates from ORCA-job ./opt_b97-3c_parallel
N         -3.67396       -2.69321       -1.45661
C         -2.77723       -2.13536       -1.02106
C         -1.68987       -1.40385       -0.44235
C         -0.52676       -2.13495       -0.04065
C          0.32246       -1.67849        0.90863
C          1.34866       -1.18636        0.17819
C          2.55360       -1.81152       -0.01494
C          3.39039       -0.76192       -0.33179
N          4.43473       -1.10188       -0.45843
C          2.73433        0.44801       -0.40128
C          3.40060        1.68902       -0.68058
N          3.47599        2.73204       -0.21783
C          1.42812        0.18878       -0.12097
C          0.41387        1.19377        0.08669
C         -0.96636        1.04008        0.18385
N         -1.66133        2.16631        0.38749
C         -3.00392        1.85671        0.23930
N         -3.76798        2.64429        0.34005
N         -3.11298        0.51771       -0.08102
C         -1.83925       -0.00393       -0.07211
H         -0.49481       -3.18620       -0.31827
H          0.50830       -2.25758        1.81102
H          2.86851       -2.63274        0.62958
H          5.04266       -1.91545       -0.38009
H          5.03511       -0.28339       -0.36569
H          0.80021        2.20909        0.10276
H         -4.77181        2.48577        0.25977
H         -3.63179        3.65376        0.29747
