29
Coordinates from ORCA-job ./opt_b97-3c_parallel
N         -1.28585        4.43389       -0.02550
C         -1.07318        3.31093       -0.00472
C         -0.79570        1.89015        0.00856
C         -1.97523        1.13100       -0.01462
C         -2.24906       -0.24035       -0.00321
C         -3.58494       -0.65577       -0.01647
C         -3.62985       -2.04162        0.00469
C         -2.34122       -2.55064        0.02911
C         -1.44244       -1.48032        0.02418
C         -0.07223       -1.70340        0.03150
C          1.14085       -1.00948        0.03484
C          2.34784       -1.73149        0.03276
N          2.50323       -3.09073       -0.00173
C          3.33150       -0.68427        0.07356
C          2.79510        0.64921        0.07568
N          3.47769        1.83582        0.09030
C          1.40144        0.45492        0.05230
C          0.58414        1.61172        0.04310
H         -2.88255        1.73536       -0.04102
H         -4.46134       -0.01179       -0.03738
H         -4.53870       -2.63834        0.00171
H         -2.09242       -3.60928        0.04679
H          0.08891       -2.77668        0.04040
H          3.42934       -3.46606       -0.17466
H          1.70506       -3.66556       -0.24628
H          4.39752       -0.88547        0.10459
H          2.97622        2.69299       -0.11264
H          4.47968        1.82126       -0.06518
H          1.15963        2.53356        0.06303
