29
Coordinates from ORCA-job ./opt_b97-3c_parallel
N          2.88054       -4.05635        0.00349
C          2.22470       -3.11967        0.00430
C          1.37675       -1.94455        0.00410
C          0.02045       -2.31172        0.00294
C         -1.23427       -1.69871        0.00163
C         -1.71525       -0.37614       -0.00116
C         -2.81252       -0.20313       -0.00227
C         -4.07329       -0.89710       -0.00333
N         -4.87146       -1.71633       -0.00405
C         -3.28016        1.15564       -0.00534
N         -4.39469        1.95173       -0.00906
C         -1.94210        1.67069       -0.00437
C         -1.07482        0.97416       -0.00236
C          0.28010        1.31005       -0.00154
C          1.55782        0.74350        0.00129
C          2.71506        1.54426        0.00041
C          2.82102        2.98428       -0.00283
N          2.89578        4.12279       -0.00272
C          3.82521        0.72366        0.00328
C          3.42719       -0.60023        0.00546
C          2.02019       -0.68029        0.00415
H         -0.12321       -3.39333        0.00435
H         -2.00936       -2.46567        0.00153
H         -5.31208        1.51753       -0.00750
H         -4.31605        2.96167       -0.00768
H         -1.75363        2.74068       -0.00534
H          0.36216        2.39359       -0.00340
H          4.85729        1.06373        0.00255
H          4.13821       -1.42251        0.00709
