29
Coordinates from ORCA-job ./opt_b97-3c_parallel
N          5.57686       -0.21497        0.62740
C          4.44198       -0.29900        0.52124
C          3.02723       -0.38533        0.34630
C          2.38332       -1.38343       -0.31862
C          1.07077       -0.97588       -0.27372
C          0.09408       -1.85804       -0.87834
C         -1.29823       -1.87121       -0.52900
C         -1.68216       -1.09427        0.60923
N         -2.15211       -1.51045        1.51521
C         -2.12868       -0.13488       -0.35898
C         -3.41267        0.15740       -0.71016
C         -3.50240        1.47271       -0.85733
C         -2.34332        2.07504       -0.62126
C         -1.43178        1.10567       -0.31052
C         -0.12149        1.24106        0.31154
N          0.02647        2.28628        0.65646
C          0.91640        0.29401        0.29437
C          2.15931        0.65779        0.74368
H          2.65226       -2.42394       -0.14975
H          0.44969       -2.67784       -1.49459
H         -1.93556       -2.62448       -0.98567
H         -2.66425       -2.38905        1.46973
H         -2.84589       -0.76535        1.55048
H         -4.21555       -0.56071       -0.85601
H         -4.41197        1.99407       -1.14260
H         -2.15573        3.14444       -0.68727
H          0.70144        2.25866        1.41791
H         -0.87175        2.51962        1.07615
H          2.48624        1.58508        1.20580
