28
Coordinates from ORCA-job ./opt_b97-3c_parallel
N         -3.51549       -2.78125       -0.22080
C         -2.62977       -2.06188       -0.15434
C         -1.48021       -1.20124       -0.08490
C         -0.23226       -1.91787       -0.07160
C          1.09186       -1.55828        0.00614
C          1.77712       -0.29361        0.02612
C          3.20541       -0.35728        0.09734
C          4.16428       -1.42278        0.17049
N          4.67219       -2.44672        0.14621
C          3.72777        0.90025        0.08515
N          4.99365        1.35185        0.14376
C          2.68414        1.71606        0.00211
C          1.48931        1.04808       -0.02375
C          0.27313        1.80222       -0.05241
C         -1.08639        1.35577       -0.01847
N         -2.01463        2.38060        0.02199
C         -3.27902        1.98406        0.05197
C         -3.09817        0.63169        0.01932
C         -4.52877        0.52077        0.06112
N         -5.50730       -0.00826        0.32629
C         -1.74640        0.16250       -0.03095
H         -0.37915       -2.99504       -0.10495
H          1.75004       -2.42018        0.03672
H          5.23731        2.26221       -0.24112
H          5.77190        0.71588       -0.02359
H          2.77108        2.80062       -0.02899
H          0.40416        2.88140       -0.06223
H         -3.75040        2.97906        0.09032
