25
Coordinates from ORCA-job ./opt_b97-3c_parallel
N         -5.18616       -1.27774       -0.43675
C         -4.24816       -0.63736       -0.30723
C         -3.05845        0.16181       -0.15694
C         -3.06681        1.54414       -0.07189
C         -1.77270        2.02290        0.07158
C         -0.86988        0.94383        0.07631
C          0.54188        1.11648        0.12416
C          0.99726        2.49125        0.19766
N          1.34562        3.57860        0.26401
C          1.60023        0.17560        0.08336
N          2.90956        0.47209       -0.00547
C          3.09192       -0.62734       -0.07642
N          4.42945       -0.51446       -0.34146
N          2.80475       -1.70727       -0.04711
C          1.53697       -1.29099        0.08379
N          0.58431       -1.89373        0.81408
C         -0.15173       -2.28880        0.10058
C         -1.42056       -1.64905       -0.06905
C         -1.73506       -0.28102       -0.06033
H         -3.95762        2.16688       -0.11721
H         -1.53592        3.08217        0.14043
H          5.00979       -1.34527       -0.36307
H          4.88598        0.38778       -0.26769
H          0.04467       -3.28746        0.47763
H         -2.17732       -2.42450       -0.16438
