30
Coordinates from ORCA-job ./opt_b97-3c_parallel
N          6.06499        1.15285        0.70726
C          5.00416        0.79742        0.49790
C          3.65781        0.38095        0.25089
C          3.25924       -0.97170        0.35254
C          1.90329       -0.96504       -0.08033
C          1.30112       -2.08193       -0.55402
C          0.14635       -2.75576       -0.37598
C         -1.13785       -2.25025       -0.03064
C         -1.57741       -0.87056       -0.04917
C         -2.95609       -0.74021        0.33613
N         -3.75147       -1.39973        0.73748
C         -3.18641        0.63156        0.03427
C         -4.42858        1.32173        0.23599
N         -5.41763        1.85851        0.44188
C         -2.11933        1.25361       -0.53207
C         -1.07275        0.35190       -0.50298
C          0.27445        0.75971       -0.93647
N          0.34044        1.79076       -1.34196
C          1.56193        0.33327       -0.38936
C          2.65709        1.16699       -0.23055
H          3.89661       -1.82707        0.55401
H          2.05381       -2.77714       -0.92049
H          0.18267       -3.83989       -0.42604
H         -1.87859       -3.01379        0.18696
H         -3.49807       -2.24212        1.24969
H         -4.72661       -1.19972        0.95425
H         -1.97341        2.32136       -0.38387
H         -0.41475        2.29779       -1.79887
H          1.21386        2.15945       -1.71151
H          2.54985        2.19670        0.10264
