31
Coordinates from ORCA-job ./opt_b97-3c_parallel
N          5.79893        0.04547       -0.85483
C          4.69321        0.18052       -0.60148
C          3.30543        0.30989       -0.28783
C          2.55971        1.42925       -0.52048
C          1.31873        1.07460       -0.04826
C          0.30913        2.03486        0.25735
C         -0.79574        1.78548        0.99795
C         -1.80454        1.41416        0.17245
N         -2.47107        2.27930       -0.02262
C         -2.02839        0.03295       -0.14705
C         -3.21255       -0.43743       -0.67202
N         -4.18748       -0.09048       -1.05929
C         -3.16653       -1.79974       -0.55889
C         -2.03793       -2.18940        0.01927
C         -1.24447       -1.10148        0.25681
C          0.14773       -1.16132        0.72520
N          0.43553       -2.17694        1.06498
C          1.23577       -0.25181        0.34140
C          2.56095       -0.77322        0.24318
H          2.97079        2.41631       -0.32012
H          0.50585        3.06400       -0.02794
H         -0.96774        2.28179        1.95234
H         -2.71227        3.14671        0.45200
H         -3.28791        1.67363        0.03878
H         -5.03805       -0.46908       -1.47151
H         -3.93807        0.73755       -1.59747
H         -3.95189       -2.48918       -0.86970
H         -1.77815       -3.22625        0.21859
H         -0.29676       -2.67554        1.56666
H          1.28511       -2.26448        1.61849
H          2.91764       -1.77854        0.44594
