30
Coordinates from ORCA-job ./opt_b97-3c_parallel
N         -5.99856       -0.89388        0.37418
C         -4.87996       -0.65676        0.35476
C         -3.48488       -0.36107        0.28737
C         -3.00061        0.97275        0.32703
C         -1.60941        0.77325        0.20211
C         -0.73592        1.88955        0.17155
N          0.29739        2.25798        0.07741
C          1.22799        1.68139       -0.03727
N          1.79632        2.63640       -0.11348
C          1.85188        0.38600       -0.10043
C          3.20653        0.18632       -0.24470
N          4.16770        0.72244       -0.35484
C          3.39421       -1.16926       -0.23953
C          2.24994       -1.83441       -0.10775
N          2.19483       -3.17504       -0.03821
C          1.24388       -0.91417       -0.03501
C         -0.15786       -1.30774        0.03415
C         -1.33211       -0.56864        0.11757
C         -2.49788       -1.30142        0.14864
H         -3.55604        1.90108        0.41644
H         -1.11553        2.91921        0.25977
H          2.08904        2.21538       -0.99324
H          1.66444        3.63011       -0.29240
H          5.16562        0.66393       -0.16179
H          3.86904        1.66069       -0.09266
H          4.36429       -1.66370       -0.31077
H          3.03201       -3.70543        0.19518
H          1.40397       -3.62763        0.41586
H         -0.28329       -2.38611        0.01486
H         -2.64098       -2.14893       -0.51916
