26
Coordinates from ORCA-job ./opt_b97-3c_parallel
N         -0.10794       -3.72948       -0.65403
C          1.01345       -3.55270       -0.79996
C          1.38358       -2.22645       -0.40751
C          2.55247       -1.98603        0.37146
C          2.81396       -0.70807        0.77587
C          1.75240       -0.09878        0.15260
C          1.52050        1.33900        0.24211
C          2.37219        2.15911        1.05144
N          3.01582        2.82867        1.71398
C          0.61095        1.96952       -0.69793
N          0.36871        3.02852       -0.90442
N         -0.68368        2.11184       -0.32987
C         -1.55844        1.10392       -0.09538
N         -2.83413        1.27444        0.38682
C         -3.45990        0.03450        0.35391
N         -4.50578       -0.05714        0.70971
N         -2.56010       -0.88002       -0.19366
C         -1.37007       -0.24778       -0.50366
N         -0.28789       -0.65766       -1.08909
C          0.84692       -0.97685       -0.54995
H          3.20179       -2.80892        0.65917
H          3.82361       -0.30496        0.70651
H         -0.04548        3.86554       -1.31867
H          1.36840        3.23098       -0.84653
H         -5.05441       -0.92114        0.71234
H         -5.15641        0.65560        1.05115
