28
Coordinates from ORCA-job ./opt_b97-3c_parallel
N         -3.13433       -2.38134       -2.32796
C         -2.38521       -1.95676       -1.57777
C         -1.47599       -1.39344       -0.63280
C         -0.29249       -2.07573       -0.20784
C          0.53530       -1.50665        0.71171
C          1.52608       -0.67040        0.29490
C          2.90928       -1.00407        0.22972
C          3.51588       -2.26463        0.51269
N          4.03527       -3.25787        0.72992
C          3.59453        0.19977       -0.14136
N          4.54069        0.72968       -0.35905
N          2.66511        1.21625       -0.30061
C          1.46317        0.66559       -0.03923
C          0.32013        1.58661       -0.11809
C          0.51503        2.99461       -0.35003
N          1.15386        3.93625       -0.23314
C         -1.09296        1.23564        0.00305
N         -2.08894        2.05402       -0.10084
C         -3.27952        1.66969        0.20764
C         -2.80211        0.43530        0.52529
C         -3.87435       -0.24032        1.18810
N         -4.71548       -0.81115        1.70965
C         -1.57775       -0.11227        0.00568
H         -0.09467       -3.06279       -0.61742
H          0.51130       -1.85225        1.74353
H          5.40645        0.19449       -0.28405
H          4.82261        1.70387       -0.47311
H         -4.10882        2.38627        0.10478
