26
Coordinates from ORCA-job ./opt_b97-3c_parallel
N         -5.45736       -0.40937       -0.37574
C         -4.42910        0.06898       -0.23371
C         -3.12585        0.63879       -0.07856
C         -2.83967        1.95940        0.02873
C         -1.53336        2.12439        0.17730
C         -0.87163        0.92014        0.15698
C          0.60048        0.84880        0.15895
C          1.30234        2.10081        0.21880
N          1.83789        3.10778        0.29727
C          1.42600       -0.35146        0.06731
C          2.79814       -0.32503       -0.09029
C          3.98060        0.46791       -0.25778
N          4.60412        1.13008       -0.95025
C          3.21745       -1.62606       -0.10100
C          2.19318       -2.44918        0.06502
C          1.04004       -1.71889        0.19404
N          0.30782       -2.52130        0.36631
C         -0.72172       -2.23142        0.17097
C         -1.92663       -1.53386       -0.05440
C         -1.90009       -0.09630        0.00757
H         -3.57256        2.76228        0.00362
H         -1.07486        3.10416        0.28920
H          4.24338       -1.96827       -0.24057
H          2.30524       -3.53868        0.07181
H         -1.04113       -3.28429        0.11809
H         -2.85176       -2.08428       -0.19525
