31
Coordinates from ORCA-job ./opt_b97-3c_parallel
N         -3.49770        3.42475        0.75673
C         -3.13548        2.34159        0.70081
C         -2.66261        0.99588        0.59194
C         -3.49148       -0.06240        1.07162
C         -3.05714       -1.34390        0.88803
C         -1.86296       -1.08060        0.27064
C         -1.15210       -2.09396       -0.48391
C         -1.65480       -3.37740       -0.88789
N         -2.15235       -4.38994       -0.70815
C          0.28690       -2.12594       -0.40583
N          1.14076       -2.77423       -0.68909
N          0.94758       -1.37137        0.40766
C          1.37807       -0.17674        0.17209
C          2.75324        0.18282        0.36425
C          3.75208       -0.72598        0.84542
N          4.56037       -1.45545        1.19388
C          2.95981        1.45324       -0.07256
N          4.06347        2.21695       -0.01649
C          1.80717        1.86926       -0.57417
C          0.81982        0.93049       -0.41116
C         -0.59513        0.99845       -0.75466
C         -0.85652        2.25800       -1.39298
N         -1.07017        2.64101       -2.44883
C         -1.56428        0.33049        0.11189
H         -4.45432        0.16921        1.51778
H         -3.73622       -2.11298        0.52798
H          2.14600       -2.93596       -0.67556
H          0.70225       -3.66023       -0.93424
H          4.98192        1.79460        0.10948
H          4.16021        3.04061       -0.60708
H          1.66014        2.86818       -0.97986
