28
Coordinates from ORCA-job ./opt_b97-3c_parallel
N          3.32754        2.96663        0.89264
C          2.44404        2.28548        0.64541
C          1.31764        1.47172        0.30450
C         -0.02090        2.00324        0.42108
C         -1.21633        1.25035        0.10665
C         -2.45973        1.93588        0.25855
N         -3.38053        1.03505       -0.06509
C         -2.75431       -0.09748       -0.38336
N         -3.77020       -0.51307       -0.54871
C         -1.30445       -0.14292       -0.30582
C         -1.02552       -1.55997       -0.22153
C          0.31091       -1.93056        0.15479
C          0.66759       -3.28034        0.40909
C          1.99456       -3.29962        0.68334
C          2.45901       -2.05488        0.60838
C          1.45599       -1.18016        0.27755
C          1.49128        0.15603       -0.25500
N          1.86020        0.11493       -1.29685
H         -0.13292        3.02800        0.76396
H         -2.75183        2.95414        0.55841
H         -3.63036       -1.50597       -0.73103
H         -4.78071       -0.37866       -0.50307
H         -1.76352       -2.35180       -0.31516
H         -0.01196       -4.12601        0.34127
H          2.57929       -4.18286        0.92792
H          3.49427       -1.77057        0.78920
H          2.59481        0.82223       -1.27414
H          2.32918       -0.76573       -1.50869
