31
Coordinates from ORCA-job ./opt_b97-3c_parallel
N          0.68169        4.38798        0.77697
C          0.62022        3.28650        0.48453
C          0.55300        1.91280        0.07718
C         -0.50273        1.65386       -0.74077
C         -1.63181        1.15247       -0.16772
C         -2.76201        1.91142       -0.02861
N         -3.70058        1.01725        0.27873
C         -3.27983       -0.29855        0.38281
N         -4.16223       -0.92600        0.61219
C         -1.88333       -0.21883        0.12057
C         -1.04563       -1.40178        0.03282
C          0.40320       -1.39705       -0.12613
C          0.98432       -2.61848       -0.32317
N          0.88485       -3.71852       -0.44743
N          2.29548       -2.49955       -0.49236
C          2.47542       -1.12789       -0.37968
N          3.57888       -1.18072       -0.50493
C          1.34052       -0.38782       -0.06861
C          1.48742        0.87935        0.44488
N          2.32188        1.12770        1.13601
H         -0.55083        2.11598       -1.72606
H         -3.30912        2.86898       -0.05126
H         -4.35040       -1.70697        1.24249
H         -5.07705       -0.66233        0.23982
H         -1.54579       -2.36377        0.10429
H          1.47206       -4.50972       -0.17240
H          0.11230       -4.14311       -0.96454
H          3.89471       -0.23994       -0.25620
H          4.44067       -1.72398       -0.60363
H          2.73314        1.02397        2.06458
H          2.52639        2.09042        0.85873
