27
Coordinates from ORCA-job ./opt_b97-3c_parallel
N          4.92029       -0.49428        0.34645
C          3.92869        0.05514        0.20304
C          2.68330        0.72535       -0.01580
C          2.52568        2.04562       -0.28956
C          1.23799        2.32199       -0.43686
C          0.47584        1.19735       -0.26596
C         -0.94640        1.27302        0.06815
C         -1.52392        2.56048        0.33251
N         -1.96922        3.58556        0.57076
C         -1.82468        0.12511        0.04321
C         -3.20571        0.19509        0.39517
C         -3.75838       -1.00644        0.10617
C         -2.81264       -1.78207       -0.41012
C         -1.61397       -1.11934       -0.47553
N         -0.63432       -1.72289       -1.04641
C          0.19265       -2.10515       -0.13342
N          0.25730       -3.18774        0.07802
C          1.26767       -1.29439        0.35658
C          1.39636        0.09622       -0.03096
H          3.33510        2.76523       -0.38836
H          0.85592        3.31008       -0.68337
H         -3.71868        1.07631        0.76736
H         -4.79836       -1.28376        0.25992
H         -2.97421       -2.80528       -0.74301
H          1.12299       -3.69526        0.24820
H         -0.50569       -3.85235        0.18614
H          2.11197       -1.79760        0.82135
