30
Coordinates from ORCA-job ./opt_b97-3c_parallel
N         -5.36316        0.11895        1.77216
C         -4.40728       -0.23128        1.25306
C         -3.18381       -0.66363        0.64319
C         -2.94916       -2.05413        0.65433
C         -1.84116       -2.44192       -0.01274
C         -1.16573       -1.25320       -0.20988
C          0.27777       -1.36408       -0.53043
C          0.76848       -2.66306       -0.90523
N          1.11931       -3.70592       -1.21471
C          1.26009       -0.33022       -0.21582
C          2.65653       -0.54523        0.09061
C          3.32871       -1.78910        0.33612
N          3.89188       -2.75826        0.55678
C          3.41034        0.57797        0.35467
N          4.62396        0.71029        0.92804
C          2.41635        1.48312        0.07463
C          2.79613        2.86880        0.07657
N          3.16861        3.94247        0.18478
C          1.10513        1.00530       -0.24509
N          0.16945        1.78042       -0.61938
C         -1.01784        1.82526       -1.08074
C         -2.11253        1.14724       -0.47920
C         -3.32028        1.91337       -0.56234
N         -4.27241        2.54151       -0.66797
C         -2.06333       -0.17820       -0.01014
H         -3.66404       -2.74522        1.09267
H         -1.36744       -3.38602        0.24593
H          5.13659        1.58758        0.86332
H          5.29423       -0.05716        0.88815
H         -1.07823        2.83717       -1.50992
