27
Coordinates from ORCA-job ./opt_b97-3c_parallel
N          4.48099       -1.62292       -0.94478
C          4.00013       -0.62572       -1.23129
C          2.89209        0.06448       -0.64922
C          3.17007        1.28122        0.04852
C          2.15845        1.91100        0.72656
C          1.14257        1.06568        0.35254
C         -0.25817        1.36154        0.53164
C         -0.61004        2.48976        1.36131
N         -0.87518        3.40536        1.99227
C         -1.07947        0.98532       -0.53017
N         -1.45373        1.84655       -1.13534
C         -1.97980       -0.04854       -0.30496
C         -3.39094        0.03197       -0.60987
N         -4.50435        0.13419       -0.84928
C         -1.46094       -1.26199        0.30061
N         -2.38605       -2.15084        0.82965
C         -1.83935       -3.36236        1.19340
N         -0.90352       -2.68572        0.62460
C         -0.16809       -1.74026        0.16003
C          0.88394       -1.32256       -0.63140
C          1.55995       -0.06860       -0.40893
H          4.18497        1.66616        0.08944
H          2.04900        2.99132        0.66175
H         -1.10820        2.80252       -1.06827
H         -2.44278        1.91381       -1.37315
H         -2.02007       -4.36388        1.61197
H          1.50614       -2.08788       -1.08461
