27
Coordinates from ORCA-job ./opt_b97-3c_parallel
N         -5.25523        1.73243        0.08159
C         -4.37556        1.00290        0.08771
C         -3.26467        0.10008        0.05683
C         -3.48879       -1.28794        0.07587
C         -2.35355       -2.01545       -0.00914
C         -1.34513       -1.06678        0.02219
C          0.03338       -1.55305        0.07949
C          0.15083       -2.98986        0.16770
N          0.28308       -4.12306        0.23473
C          1.29588       -0.80399        0.05269
C          2.49613       -1.60540        0.07379
C          3.60371       -0.72704        0.02017
N          4.70701       -0.68820        0.00128
N          3.10250        0.54888       -0.02920
C          1.74534        0.50825       -0.00784
C          1.10323        1.74505       -0.03663
C          1.92511        2.92597       -0.07838
N          2.61145        3.83917       -0.10233
C         -0.27390        2.09875       -0.00342
N         -1.49416        1.48195        0.02749
C         -1.89556        0.20980        0.02362
H         -4.49073       -1.70603        0.10781
H         -2.32591       -2.85063       -0.70684
H          2.60383       -2.68453        0.11095
H          5.34028        0.11190       -0.00238
H          5.30306       -1.51642       -0.00591
H         -0.88644        3.01375       -0.00376
