24
Coordinates from ORCA-job ./opt_b97-3c_parallel
N          4.62604        0.20263       -1.24586
C          3.61072        0.59092       -0.89509
C          2.31788        1.04777       -0.48701
C          1.99961        2.36500       -0.38278
C          0.73867        2.48065       -0.00468
C          0.18383        1.23789        0.08965
C         -1.22958        0.99606        0.32176
C         -2.07742        2.08376        0.73346
N         -2.75964        2.94800        1.02880
C         -1.94567       -0.14036        0.01680
N         -3.10646       -0.08445       -0.63108
C         -3.64579       -1.28975       -0.77957
N         -2.81268       -2.23793       -0.27243
C         -1.77045       -1.48502        0.21809
N         -0.96759       -2.43979        0.55890
C          0.27751       -2.09530        0.46796
C          1.16688       -1.15078        0.02708
C          2.01359       -1.77159        0.40027
N          3.00720       -2.17335        0.80516
C          1.18749        0.21853       -0.14014
H          2.68504        3.19440       -0.54793
H          0.23090        3.42774        0.16842
H         -4.62689       -1.25710       -1.28059
H          0.03942       -2.97548        1.09317
