30
Coordinates from ORCA-job ./opt_b97-3c_parallel
N          4.02268       -1.59180        0.83656
C          3.17822       -0.85259        0.61967
C          2.14134        0.08908        0.31483
C          2.42720        1.49891        0.29232
N          3.33341        2.10388        0.48524
C          1.39886        2.35418       -0.03254
C          0.43516        1.40681       -0.25672
C         -0.68758        1.78273       -0.91752
C         -1.58496        2.09205        0.04937
N         -1.83322        3.14994        0.25637
C         -2.43582        1.12555        0.67607
C         -2.38151       -0.27169        0.30874
C         -3.57573       -1.00306        0.55388
C         -3.40026       -2.25843        0.09320
C         -2.17111       -2.34492       -0.39322
C         -1.46219       -1.17403       -0.23286
C          0.00287       -1.10306       -0.27883
C          0.67553       -2.35452       -0.48318
N          1.13715       -2.96407       -1.33508
C          0.80929        0.07011        0.00164
H          4.00769        1.34098        0.51382
H          3.86194        2.96746        0.59317
H          1.53152        3.19037       -0.71994
H         -0.64515        2.31380       -1.86708
H         -1.42921        4.03429       -0.04610
H         -2.82654        3.18992        0.03507
H         -3.28678        1.47780        1.25594
H         -4.48722       -0.57640        0.96123
H         -4.14987       -3.04597        0.08334
H         -1.78516       -3.24756       -0.86152
