31
Coordinates from ORCA-job ./opt_b97-3c_parallel
N         -3.39360       -2.75655       -0.98125
C         -3.00145       -1.74903       -0.61272
C         -2.47740       -0.50940       -0.11814
C         -3.30559        0.29163        0.73971
N         -4.32905        0.20705        1.14975
C         -2.75245        1.41187        1.30589
C         -1.55256        1.35248        0.65616
C         -0.70466        2.50942        0.56800
C          0.08608        2.60943       -0.62064
N          0.53315        3.53543       -1.02630
N          1.45529        2.47680       -0.56055
C          1.87432        1.32587        0.00881
N          3.19552        1.14928        0.37795
C          3.39714       -0.19724        0.63231
N          4.43800       -0.41366        0.94548
C          2.18812       -0.91394        0.34498
C          2.05913       -2.33353        0.46294
N          1.99956       -3.46809        0.56951
C          1.18340        0.06293        0.01570
C         -0.06454       -0.27482       -0.66078
C         -0.09424       -1.42760       -1.51059
N         -0.06255       -2.33266       -2.20706
C         -1.28260        0.17507       -0.13033
H         -5.07833        0.68199        1.65134
H         -4.70927       -0.68860        0.84544
H         -3.29754        2.35641        1.37003
H         -0.95423        3.40706        1.12879
H          1.09593        4.33823       -1.31103
H         -0.43019        3.77658       -1.26033
H          4.67806       -1.40800        0.94203
H          5.27495        0.05966        1.29162
