26
Coordinates from ORCA-job ./opt_b97-3c_parallel
N         -3.17987        3.39205       -0.00176
C         -2.40105        2.55777       -0.00092
C         -1.46297        1.46516       -0.00008
C         -0.22111        2.06787        0.00035
C          1.03026        1.60947        0.00008
C          1.60531        0.36218       -0.00041
C          3.04297        0.20377       -0.00106
C          4.01181        1.25657       -0.00186
N          4.81312        2.06803       -0.00213
C          3.31545       -1.13697       -0.00024
N          4.22919       -1.76978        0.00001
N          2.22340       -1.90642        0.00084
C          1.16062       -1.00940        0.00077
N         -0.08141       -1.62691        0.00214
C         -1.38836       -1.16245        0.00229
N         -2.41768       -2.08195        0.00332
C         -3.64160       -1.42255        0.00289
N         -4.63665       -1.90522        0.00353
N         -3.36405       -0.06476        0.00151
C         -1.99354        0.12165        0.00115
H         -0.20719        3.16417        0.00091
H          1.74426        2.43167        0.00033
H          4.51374       -2.75258        0.00066
H          5.11541       -1.25472       -0.00014
H         -4.89878       -2.89303        0.00438
H         -5.52520       -1.39897        0.00353
