27
Coordinates from ORCA-job ./opt_b97-3c_parallel
N          2.14154       -2.34614        2.47613
C          1.56193       -1.78488        1.66960
C          0.87210       -1.03914        0.65778
C          0.13577       -1.81010       -0.20669
N          0.81296       -2.73613       -0.90839
C         -1.15398       -1.59633       -0.42515
C         -1.84892       -0.59067        0.17783
C         -3.07234       -0.89525        0.70103
C         -3.83101        0.22805        0.47211
N         -4.89776        0.49771        0.60913
N         -3.04786        1.24224       -0.07006
C         -1.76476        0.76677       -0.23726
N         -0.67063        1.38097       -0.86410
C          0.70078        1.14816       -0.65935
N          1.65301        2.10278       -0.95803
C          2.83039        1.82044       -0.26418
N          3.79357        2.36324       -0.23834
N          2.62232        0.68349        0.50668
C          1.33327        0.26445        0.26242
H          0.30951       -3.47833       -1.39862
H          1.64925       -3.17400       -0.51651
H         -1.67569       -2.22231       -1.15010
H         -3.49735       -1.89765        0.64520
H         -5.40888        1.37610        0.72994
H         -5.62827       -0.21960        0.62178
H          3.97160        3.37024       -0.24940
H          4.71972        1.93678       -0.16027
