25
Coordinates from ORCA-job ./opt_b97-3c_parallel
N         -0.19278       -4.42075        0.00395
C         -0.13504       -3.27891        0.00363
C         -0.01691       -1.84853        0.00285
C         -1.28620       -1.30228        0.00288
C         -1.74456       -0.00757        0.00167
C         -3.16688        0.14576        0.00211
C         -3.47919        1.45869        0.00046
C         -2.34281        2.13269       -0.00116
C         -1.26623        1.28251       -0.00033
C         -0.03506        1.89153       -0.00166
C          1.29693        1.35809       -0.00067
C          2.36156        2.20856       -0.00177
C          3.46993        1.48715       -0.00042
C          3.20144        0.19244        0.00123
C          1.84803        0.03026        0.00109
C          1.31306       -1.30561        0.00221
H         -2.10092       -2.02675        0.00409
H         -3.87302       -0.67919        0.00339
H         -4.48059        1.88205        0.00020
H         -2.28418        3.21956       -0.00259
H         -0.03320        2.97861       -0.00332
H          2.31539        3.29536       -0.00312
H          4.47375        1.90478       -0.00082
H          3.94221       -0.60432        0.00241
H          2.08468       -2.06978        0.00283
