30
Coordinates from ORCA-job ./opt_b97-3c_parallel
N         -2.78884       -3.15676        0.77417
C         -2.05073       -2.33240        0.49214
C         -1.09176       -1.33719        0.11942
C          0.25378       -1.78249       -0.15873
N          0.49995       -2.31013       -1.10084
C          1.55584       -1.84523        0.46575
C          2.41995       -0.76123        0.34389
C          3.71071       -0.92548        0.75004
C          4.14212        0.30541        0.31528
N          5.15737        0.74978        0.33196
N          3.20600        1.18294       -0.21835
C          2.05689        0.50636       -0.21261
N          0.87533        0.88430       -0.58380
C         -0.38125        1.09656       -0.34457
C         -0.92740        2.34913       -0.35910
C         -2.23865        2.11243       -0.00895
N         -2.81942        3.05003        0.05625
C         -2.56076        0.78736        0.20082
C         -3.81837        0.20604        0.55914
N         -4.83859       -0.23181        0.82712
C         -1.33492        0.08991       -0.00731
H          1.06618       -2.76812       -1.81556
H         -0.27633       -2.95036       -0.92378
H          1.89498       -2.76389        0.94318
H          4.26183       -1.83380        0.50929
H          5.98570        0.19907        0.56641
H          5.51598        1.67574        0.09057
H         -0.66673        3.06011       -1.14364
H         -3.77820        2.74150        0.22094
H         -2.84458        4.06915        0.08814
