38
Coordinates from ORCA-job ./opt_b97-3c_parallel
N         -0.91402        3.97468        0.58009
C         -0.72921        2.84561        0.54645
C         -0.16580        1.92744        0.22650
C         -0.95671        1.21500       -0.66278
N         -1.28830        1.44959       -1.70304
C         -1.77899        0.12820       -0.18680
C         -3.14742        0.09284       -0.10128
N         -3.98491        0.77983       -0.31515
C         -3.42138       -1.10031        0.50288
C         -2.31500       -1.79317        0.77001
N         -2.33412       -2.97011        1.41736
C         -1.23405       -1.09459        0.29386
C          0.05262       -1.42646       -0.06476
N         -0.03625       -2.70091       -0.50291
C          1.19264       -0.69365       -0.31170
C          2.24997       -1.32562       -0.91031
N          2.77675       -2.14269       -1.44513
N          3.41839       -0.75516       -0.61000
C          3.09621        0.29513        0.24793
N          4.12774        0.66166        0.42655
C          1.72544        0.45307        0.20607
C          1.11476        1.60876        0.53275
N          1.86698        2.51170        1.21297
H         -1.39477        2.46373       -1.72672
H         -2.18451        1.06720       -2.00716
H         -4.91676        0.55016        0.02868
H         -4.02588        1.75145       -0.62008
H         -4.42206       -1.43069        0.78257
H         -3.20581       -3.31496        1.81885
H         -1.58090       -3.22588        2.05239
H          0.44614       -3.43373        0.01696
H         -0.96813       -3.08171       -0.67952
H          3.48903       -2.76485       -1.83207
H          1.88042       -2.57210       -1.68947
H          3.81008        1.56344        0.79175
H          5.14705        0.69067        0.48302
H          2.05470        2.34520        2.20177
H          1.59055        3.49449        1.16424
