29
Coordinates from ORCA-job ./opt_b97-3c_parallel
N         -4.77625       -1.50329        1.34474
C         -3.95457       -0.80836        0.96102
C         -2.89729        0.04246        0.50420
C         -3.17097        1.39532        0.16529
C         -2.10737        2.12436       -0.27948
C         -1.10787        1.18206       -0.20422
C          0.26978        1.46079       -0.58172
C          0.55919        2.77387       -1.08885
N          0.83091        3.81423       -1.47505
C          1.39089        0.53613       -0.35895
N          2.64332        1.14777       -0.30865
C          3.62976        0.41734        0.32801
N          4.60132        0.93687        0.39459
C          2.92814       -0.70649        0.61504
C          1.67276       -0.70075        0.18024
C          0.90693       -1.81184        0.16127
C          1.16883       -2.84520        0.51311
N          1.84951       -3.75773        0.39619
C         -0.33600       -1.81798       -0.42599
N         -0.91792       -2.24334       -1.27265
N         -1.12988       -1.23425        0.41747
C         -1.55677       -0.03284        0.24114
H         -4.17665        1.79588        0.25552
H         -1.95761        3.14208        0.07526
H          4.84172        1.91750        0.24763
H          5.43679        0.49902        0.78338
H          3.42003       -1.58041        1.03965
H         -0.42912       -3.12382       -1.43011
H         -1.87860       -2.49264       -1.03627
