31
Coordinates from ORCA-job ./opt_b97-3c_parallel
N          5.36671        0.61924       -0.75334
C          4.24050        0.55374       -0.55754
C          2.83476        0.50056       -0.28413
C          2.18795        1.67715       -0.03116
C          0.92010        1.23812        0.25404
C          0.00748        1.84232        1.05796
C         -0.55322        2.54544        0.04767
C         -1.69210        2.08818       -0.68070
C         -2.31997        0.81213       -0.42331
C         -3.61379        0.60618       -0.76150
C         -3.92460       -0.62538       -0.40340
C         -2.91348       -1.29084        0.14493
N         -3.08274       -2.56756        0.53146
C         -1.82584       -0.43829        0.13513
C         -0.43277       -0.90172        0.29984
N         -0.25526       -1.97579        0.50704
C          0.76456       -0.10532        0.05006
C          2.03874       -0.69207       -0.25881
N          2.48867       -1.68660       -0.45096
H          2.65807        2.47699        0.53732
H          0.31326        2.33326        1.97878
H         -0.23991        3.56791       -0.14489
H         -2.22131        2.81779       -1.28619
H         -4.28448        1.32769       -1.22215
H         -4.91537       -1.05030       -0.55086
H         -3.86622       -3.10027        0.15837
H         -2.27842       -3.19260        0.54250
H         -1.09205       -2.08090        1.07821
H          0.52623       -1.90975        1.15671
H          1.64587       -2.25474       -0.37829
H          3.28135       -2.31072       -0.31342
