27
Coordinates from ORCA-job ./opt_b97-3c_parallel
N         -3.91525       -2.86615       -0.44450
C         -3.48910       -1.82501       -0.24117
C         -2.96868       -0.51260       -0.03446
C         -3.79591        0.55997        0.42590
C         -3.23857        1.80571        0.54312
C         -1.99085        1.43435        0.12612
N         -1.11454        2.46027       -0.02567
C          0.22563        2.16735       -0.20812
N          0.57481        3.18552       -0.45818
N          1.32501        1.49013       -0.31170
C          1.44185        0.19750       -0.24025
C          2.65980       -0.45766        0.13758
C          3.83118        0.26491        0.52919
N          4.73911        0.87853        0.85594
C          2.47363       -1.80592        0.10577
N          3.35548       -2.78787        0.35217
C          1.20981       -2.01110       -0.24157
C          0.55310       -0.83238       -0.44035
N         -0.65983       -0.46668       -0.70301
C         -1.74677        0.05830       -0.23217
H         -4.84205        0.36852        0.64843
H         -3.37629        2.38476        1.45471
H          1.47445        3.39487       -0.89075
H         -0.04254        3.94902       -0.73443
H          3.26505       -3.69488       -0.10459
H          4.34993       -2.58118        0.44192
H          0.75573       -2.99242       -0.36532
