27
Coordinates from ORCA-job ./opt_b97-3c_parallel
N          4.13047       -1.85766        0.64056
C          3.40904       -1.00322        0.40683
C          2.46739        0.03386        0.10560
C          2.67908        1.36537       -0.16510
N          3.59310        1.98217       -0.22265
C          1.53368        2.07457       -0.42575
C          0.52796        1.15506       -0.29497
C         -0.82849        1.65281       -0.11472
C         -2.02240        0.96318       -0.01363
C         -3.16211        1.57833        0.35402
C         -4.18044        0.73352        0.22111
N         -3.64916       -0.38512       -0.27505
C         -2.31967       -0.33166       -0.47042
N         -1.46745       -1.10609       -1.04019
C         -0.79530       -1.83985       -0.22276
N         -1.11588       -2.89000       -0.09483
C          0.48423       -1.45912        0.29239
C          1.05642       -0.15875       -0.00075
H          3.92369        2.92172       -0.43771
H          4.41254        1.44552        0.05967
H          1.40899        3.09978       -0.07506
H         -0.88011        2.73489       -0.02166
H         -3.23968        2.59703        0.72950
H         -5.20614        1.03425        0.48629
H         -0.25746       -3.40842       -0.28088
H         -1.85399       -3.58797       -0.00806
H          1.10713       -2.23290        0.73606
