27
Coordinates from ORCA-job ./opt_b97-3c_parallel
N          2.02733       -3.44227        0.57537
C          2.04435       -2.32230        0.34954
C          2.02659       -0.92429        0.05219
C          3.06263       -0.22385       -0.48298
C          2.71183        1.04601       -0.58085
C          1.43366        1.18814       -0.13699
N          0.78739        2.40259        0.07535
C         -0.56999        2.65550        0.31167
N         -0.40905        3.73908        0.44262
C         -1.77069        1.93393       -0.08275
C         -1.94371        0.50658       -0.21537
C         -3.11041       -0.04214       -0.64916
C         -2.62308       -1.27625       -0.30433
N         -3.30852       -2.07939       -0.63497
C         -1.43834       -1.70105        0.24337
C         -1.00494       -0.40895        0.32033
N         -0.04246       -0.27961        0.83944
C          0.91457       -0.05682        0.34302
H          4.03052       -0.63783       -0.75876
H          3.34468        1.84488       -0.95898
H         -1.02920        4.08818        1.17314
H          0.08692        4.55208        0.07751
H         -2.66058        2.53536       -0.25080
H         -4.06837        0.31323       -0.27036
H         -4.30023       -2.02278       -0.86454
H         -3.10279       -3.06866       -0.50146
H         -1.42187       -2.36328        1.11019
