24
Coordinates from ORCA-job ./opt_b97-3c_parallel
N         -2.70422       -3.33671        0.07070
C         -2.66290       -2.19564        0.06181
C         -2.55554       -0.76989        0.04281
C         -3.58308        0.11906        0.01366
C         -3.09458        1.34921       -0.00888
C         -1.72946        1.31398       -0.00020
C         -0.99329        2.54660        0.01408
C          0.41321        2.82194       -0.00845
N          1.59358        2.11262       -0.09456
C          1.92222        0.77294       -0.09735
C          3.26554        0.55712       -0.19077
C          3.35222       -0.80776       -0.05056
N          4.15533       -1.56092       -0.02953
N          2.13408       -1.36386        0.04718
C          1.18951       -0.43002        0.02571
N         -0.13831       -0.78439        0.08205
C         -1.31126       -0.05638        0.03696
H         -4.64026       -0.13904        0.01307
H         -3.70059        2.25309       -0.03143
H         -1.60920        3.44138        0.02662
H          0.61303        3.90517       -0.01325
H          3.99378        1.22423        0.26772
H          4.18432       -2.57905       -0.01337
H          5.12730       -1.24891       -0.06436
