30
Coordinates from ORCA-job ./opt_b97-3c_parallel
N         -5.58136        0.99041        0.66626
C         -4.62497        0.39836        0.46272
C         -3.45230       -0.37307        0.18507
C         -3.55871       -1.76081       -0.10835
C         -2.38429       -2.41283       -0.34982
C         -1.50389       -1.37230       -0.19333
C         -0.08241       -1.60395       -0.23885
C          1.04728       -0.69513       -0.04857
C          2.28851       -1.29744        0.02818
C          2.72599       -2.66946        0.00026
N          2.91174       -3.71161       -0.42827
C          3.29162       -0.27173        0.14394
N          4.39241       -0.38111        0.23370
C          2.67129        0.95934        0.11711
C          3.29511        2.25052        0.22138
N          3.79981        3.26962        0.34046
C          1.25170        0.74657       -0.00590
C          0.41466        1.92298       -0.19006
C         -1.00743        1.92020       -0.10750
N         -1.66345        2.79846       -0.22287
N         -1.68445        0.97806        0.43003
C         -2.10005       -0.19146        0.12944
H         -4.52672       -2.25357       -0.10751
H         -2.18858       -3.37912        0.11028
H          0.16663       -2.65015       -0.37964
H          4.89261       -1.25683        0.09083
H          5.09459        0.34287        0.37698
H          0.88300        2.89034       -0.34500
H         -1.08407        3.54978       -0.59208
H         -2.63084        3.05404       -0.40719
