28
Coordinates from ORCA-job ./opt_b97-3c_parallel
N          4.63486        0.52674        1.21725
C          3.69321       -0.00558        0.85150
C          2.49834       -0.67617        0.43449
C          2.45702       -2.09600        0.52774
C          1.32349       -2.69717        0.06407
C          0.54340       -1.60843       -0.22678
C         -0.53626       -1.72968       -1.16971
C         -1.82213       -1.41705       -0.60443
C         -2.88215       -2.27093       -0.69471
C         -3.65405       -1.77532        0.32998
N         -3.21235       -0.62786        0.96327
C         -2.00899       -0.39014        0.35887
C         -1.30537        0.86699        0.48933
C         -1.88624        1.87455        1.34253
N         -2.34762        2.69812        1.98689
C         -0.49721        1.23025       -0.66409
N         -0.65525        2.24371       -1.09603
C          0.84891        0.85989       -0.62181
C          1.97234        1.62208       -1.11834
N          2.68544        2.28742       -1.71531
C          1.24855       -0.43166       -0.08125
H          3.31595       -2.64933        0.89611
H          0.91029       -3.57383        0.55666
H         -0.55725       -2.65631       -1.73610
H         -2.73206       -3.34256       -0.79735
H         -4.62313       -1.94143        0.82246
H          0.09918        2.90487       -1.27572
H         -1.48575        2.79797       -0.89231
