28
Coordinates from ORCA-job ./opt_b97-3c_parallel
N         -5.64852        0.82669        0.34735
C         -4.66800        0.25633        0.20855
C         -3.42081       -0.42877        0.05747
C         -3.40271       -1.83852       -0.07152
C         -2.16720       -2.38644       -0.20856
C         -1.34797       -1.28470       -0.15608
C          0.07682       -1.58647       -0.21651
C          1.23137       -0.72065       -0.15694
C          2.50101       -1.24026       -0.14586
C          3.13872       -2.52034       -0.18541
N          3.07473       -3.65294       -0.04762
C          3.47160       -0.27662       -0.07015
C          2.70289        0.85472       -0.08992
C          3.38865        2.11389       -0.04864
N          3.95563        3.10476        0.00901
C          1.27725        0.68823       -0.13978
N          0.59865        1.55138       -0.16858
C         -0.46527        1.74892       -0.03370
N         -0.38725        2.85402        0.01380
C         -1.79074        1.24228        0.07834
C         -2.09028       -0.10734       -0.00871
H         -4.32303       -2.41472       -0.05658
H         -1.91247       -3.30446        0.31663
H          0.31246       -2.64462       -0.28541
H          4.30142       -0.36443        0.63022
H         -1.17470        3.26345       -0.48426
H          0.38797        3.50895       -0.07604
H         -2.58712        1.97349        0.20723
