27
Coordinates from ORCA-job ./opt_b97-3c_parallel
N          4.80333        2.29033       -0.31316
C          4.19317        1.33249       -0.18517
C          3.25165        0.27795        0.02210
C          3.74356       -0.97805        0.49029
C          2.87011       -2.02483        0.61839
C          1.73829       -1.34835        0.24621
C          0.48060       -2.02776        0.04843
C         -0.84080       -1.43856       -0.09498
C         -1.92582       -2.35933       -0.22551
C         -3.19040       -1.83037       -0.18199
C         -2.84417       -0.52849        0.08977
C         -4.11578        0.10717        0.27076
N         -4.92129        0.70865       -0.27409
C         -1.44877       -0.22340        0.10911
C         -1.01577        1.11267        0.46379
C         -1.72584        2.25874        0.95186
N         -2.36100        3.19911        0.81777
C          0.29652        1.53707        0.07047
C          1.08114        0.84079       -0.78147
C          1.92840        0.00419       -0.14142
H          4.80240       -1.11073        0.69355
H          3.10621       -2.99525        0.18679
H          0.51861       -3.11201        0.09802
H         -1.73728       -3.42565       -0.30363
H         -3.90912       -2.08451       -0.96056
H          0.61364        2.54849        0.31836
H          1.31520        1.23014       -1.76918
