29
Coordinates from ORCA-job ./opt_b97-3c_parallel
N          5.20572        1.20775        0.00099
C          4.35723        0.44280        0.02919
C          3.26673       -0.47813        0.03444
C          3.46123       -1.89845        0.09172
C          2.34954       -2.70968        0.07830
C          1.41010       -1.72255       -0.03435
N          0.16434       -2.01859       -0.20573
C         -1.12617       -2.10349       -0.24131
N         -1.09157       -3.18168       -0.47194
C         -2.05715       -1.04750        0.08474
C         -3.45108       -1.35040        0.20887
N         -4.57327       -1.54502        0.29750
C         -1.57460        0.30420        0.32341
N         -2.34105        1.27642        0.70228
C         -2.01058        2.36475        0.09312
N         -2.93459        2.91076        0.36982
C         -0.77852        2.05516       -0.44836
C         -0.35623        3.23675       -1.14697
N         -0.01670        4.27494       -0.80512
C         -0.27169        0.73492       -0.12395
C          1.17133        0.83825       -0.10021
C          1.91390       -0.39433       -0.02790
H          4.47034       -2.29609        0.14709
H          2.23901       -3.50202        0.81612
H         -1.97949       -3.61847       -0.71436
H         -0.39994       -3.93023       -0.44959
H         -2.57244        3.86571        0.35737
H         -3.92147        2.98580        0.61715
H          1.71115        1.78119       -0.09094
