26
Coordinates from ORCA-job ./opt_b97-3c_parallel
N         -3.62506       -3.32460       -0.00090
C         -2.72198       -2.62517       -0.00126
C         -1.56029       -1.78267       -0.00089
C         -0.31245       -2.49277       -0.00197
C          0.97373       -2.06965       -0.00310
C          1.84376       -1.03242       -0.00147
N          3.21913       -1.16350       -0.00388
C          3.79960        0.10021       -0.00010
N          4.90407        0.10849       -0.00044
C          2.80893        1.04376        0.01950
C          1.63889        0.36090        0.00467
N          0.47574        1.10067        0.00494
C         -0.82161        0.73053        0.00152
C         -1.65141        1.89622        0.00106
C         -1.52295        3.32322        0.00263
N         -0.94047        4.30678        0.00159
C         -2.95073        1.53410       -0.00076
C         -2.98661        0.21523       -0.00164
C         -1.72368       -0.33564       -0.00075
H         -0.44138       -3.57348       -0.00218
H          1.57411       -2.97845       -0.00195
H          5.57801       -0.65692        0.00005
H          5.45400        0.96766        0.00059
H          2.93195        2.12491       -0.01303
H         -3.81706        2.19497       -0.00012
H         -3.92191       -0.34019       -0.00293
