25
Coordinates from ORCA-job ./opt_b97-3c_parallel
N          4.31950        1.60943       -0.38027
C          3.40141        1.18148        0.14843
C          2.40652        0.14954        0.16600
C          2.62149       -1.21052        0.09690
N          3.51870       -1.85302        0.02409
C          1.48170       -1.97394        0.16944
C          0.50532       -1.01966        0.21492
C         -0.90006       -1.38515        0.21227
C         -2.06928       -0.63245        0.09556
C         -3.27222       -1.40356        0.01891
C         -4.33724       -0.58718       -0.15392
C         -3.89123        0.65682       -0.18370
C         -2.53213        0.67540       -0.03210
N         -2.05308        1.92885       -0.05324
C         -0.71382        2.02643        0.16716
N          0.38553        1.42807        0.42107
C          0.99628        0.31444        0.26166
H          3.93563       -2.78187        0.03036
H          4.24005       -1.20671       -0.29302
H          1.34799       -2.87547       -0.42837
H         -1.04398       -2.46161        0.23943
H         -3.30065       -2.48856        0.05176
H         -5.37309       -0.89985       -0.26024
H         -4.52248        1.53362       -0.31724
H         -0.55011        3.11412        0.13857
