29
Coordinates from ORCA-job ./opt_b97-3c_parallel
N         -5.04650       -0.53508        1.27447
C         -4.17177        0.04074        0.81691
C         -3.10546        0.78962        0.22285
C         -3.35992        1.98977       -0.37176
C         -2.26194        2.43465       -0.96523
C         -1.24920        1.56261       -0.71801
C          0.13296        1.93984       -0.74454
C          0.92114        1.41872        0.33247
N          2.05266        1.92791        0.71808
C          3.32111        1.76840        0.94588
C          3.01861        0.54117        0.44451
C          4.39145        0.14016        0.58743
N          5.01795       -0.72082        1.00458
C          1.66360        0.30913        0.04694
C          1.23581       -0.83319       -0.61999
C          2.33175       -1.57242       -1.20800
N          3.17104       -2.17540       -1.69727
C         -0.09122       -1.27947       -0.69062
N         -0.26001       -2.27234       -1.17052
C         -1.09687       -0.80444        0.26397
C         -1.83046       -1.81020        0.99099
N         -2.04036       -2.72328        1.64598
C         -1.72613        0.41552       -0.00054
H         -4.32562        2.49082       -0.38731
H         -2.17894        3.36280       -1.52641
H          0.37773        2.92528       -1.12931
H          3.80451        2.69180        1.29980
H         -1.10359       -2.82259       -1.01484
H          0.45692       -2.92380       -1.48705
