23
Coordinates from ORCA-job ./opt_b97-3c_parallel
N         -4.86521        1.02838        0.08079
C         -3.88962        0.43605        0.03493
C         -2.64084       -0.26239       -0.01961
C         -2.64331       -1.67475       -0.08637
C         -1.41114       -2.23639       -0.15482
C         -0.58253       -1.14183       -0.08172
C          0.82125       -1.46425       -0.06607
C          2.01694       -0.67183       -0.01050
C          3.23376       -1.26355        0.00308
C          4.21804       -0.37112        0.01207
N          3.65495        0.83088        0.01011
C          2.27780        0.71820       -0.00047
N          1.54189        1.87907       -0.00671
C          0.19486        2.14885        0.00856
C         -1.01904        1.39560        0.02259
C         -1.29974        0.04388       -0.02504
H         -3.57175       -2.23876       -0.08898
H         -1.19319       -3.16509        0.36880
H          1.02284       -2.53258       -0.09786
H          3.39488       -2.33972        0.00664
H          5.31876       -0.39733        0.02192
H          0.07057        3.24290        0.02754
H         -1.86374        2.07832        0.05569
