26
Coordinates from ORCA-job ./opt_b97-3c_parallel
N          5.03332       -0.12950        0.42635
C          3.97318       -0.50847        0.23461
C          2.62840       -0.95120        0.02947
C          2.36576       -2.33594       -0.08398
C          1.05956       -2.65177       -0.27449
C          0.43454       -1.42724       -0.23914
C         -1.02367       -1.50448       -0.35931
C         -2.07979       -0.60140       -0.26201
C         -3.32903       -1.14931       -0.30267
C         -4.06227       -0.01584       -0.05489
N         -5.15621        0.10417        0.07178
N         -3.33258        1.16210        0.03059
C         -2.05354        0.80526       -0.10342
N         -1.02313        1.55880       -0.11943
C          0.22719        1.80200       -0.08812
C          1.31649        0.98300       -0.05217
C          2.16787        2.13367        0.02827
N          2.85698        3.04516        0.05819
C          1.37687       -0.40051       -0.08667
H          3.16542       -3.06870       -0.01652
H          0.63430       -3.52559        0.21610
H         -1.33616       -2.53840       -0.50009
H         -3.55547       -2.09053        0.19724
H         -5.69904        0.83417        0.53738
H         -5.84158       -0.60371       -0.19930
H         -0.20895        2.81517       -0.08447
