26
Coordinates from ORCA-job ./opt_b97-3c_parallel
N          4.68633       -2.13505        0.07226
C          3.97612       -1.24180        0.11848
C          3.05655       -0.14891        0.14906
C          3.51837        1.20292        0.24987
C          2.59152        2.21277        0.19764
C          1.48357        1.41848        0.09760
N          0.43101        2.08031       -0.42862
C         -0.81846        1.65551       -0.04180
N         -1.29675        2.46930       -0.61908
N         -1.20868        0.87229        0.90658
C         -1.37321       -0.28841        0.36415
C         -2.68080       -0.88274        0.28931
C         -3.87505       -0.22825        0.72939
N         -4.80466        0.33953        1.07079
C         -2.57716       -2.11485       -0.26327
C         -1.30530       -2.33101       -0.54732
C         -0.55811       -1.24349       -0.20170
C          0.88213       -1.16625       -0.26385
C          1.70434       -0.00710        0.05166
H          4.58458        1.39700        0.32566
H          2.63114        3.03089        0.91429
H         -2.31564        2.49266       -0.64861
H         -0.98745        3.37701       -0.96689
H         -3.39528       -2.81398       -0.42519
H         -0.91417       -3.24447       -0.99108
H          1.39695       -2.09051       -0.51085
