27
Coordinates from ORCA-job ./opt_b97-3c_parallel
N          3.79507       -1.29477       -0.71784
C          3.06110       -0.43433       -0.54649
C          2.13765        0.64098       -0.37485
C          2.28526        1.95027       -0.71961
C          1.17851        2.61765       -0.42005
C          0.26770        1.76883        0.12899
N         -0.94723        1.91383        0.53873
C         -2.19472        1.57828        0.53657
N         -2.56571        2.57970        0.80035
C         -2.81168        0.33908        0.12782
C         -2.12022       -0.88660       -0.23220
C         -2.75041       -1.96829       -0.76040
C         -1.84956       -2.93204       -0.88355
C         -0.65105       -2.54590       -0.46470
C         -0.74437       -1.26179       -0.01255
C          0.22944       -0.63553        0.71443
C          0.49687       -0.91234        1.75375
N          1.10135       -1.50415        2.52463
C          0.83987        0.47284        0.20555
H          3.18042        2.38684       -1.15672
H          1.02668        3.68348       -0.57241
H         -2.32222        3.51567        1.11736
H         -3.56237        2.45690        0.96436
H         -3.89168        0.34666        0.01582
H         -3.80269       -2.03486       -1.02790
H         -2.06793       -3.92191       -1.27749
H          0.24594       -3.16130       -0.45553
