27
Coordinates from ORCA-job ./opt_b97-3c_parallel
N          4.86870        1.95073       -0.50354
C          4.14140        1.08503       -0.34114
C          3.18634        0.04003       -0.15024
C          3.57362       -1.30353        0.16204
C          2.57847       -2.23548        0.34250
C          1.51925       -1.39793        0.12554
N          0.31917       -1.82656        0.04274
C         -0.92811       -2.02216       -0.15828
N         -0.85162       -3.11561       -0.28427
C         -1.92658       -1.01081       -0.01033
C         -3.29463       -1.43571        0.03447
N         -4.39872       -1.73489        0.07242
C         -1.59739        0.40988        0.06498
N         -2.65662        1.28010        0.22517
C         -2.18835        2.57549        0.14138
N         -2.84096        3.45655        0.24608
N         -0.82911        2.53105       -0.10297
C         -0.41028        1.21753       -0.13884
C          0.96445        1.08177       -0.33097
C          1.83068       -0.05519       -0.14842
H          4.62689       -1.54501        0.27099
H          2.59586       -2.90058        1.20464
H         -0.39812       -4.01337       -0.44600
H         -1.79693       -3.20470       -0.65451
H         -3.81702        3.47723        0.53973
H         -2.54990        4.42811        0.14444
H          1.50655        2.00515       -0.51742
