27
Coordinates from ORCA-job ./opt_b97-3c_parallel
N          4.33764        2.11301       -0.82601
C          3.75924        1.14679       -0.62863
C          3.02066       -0.04488       -0.34595
C          3.69870       -1.28216       -0.17402
C          2.91792       -2.34172        0.18424
C          1.66724       -1.77889        0.17515
C          0.56768       -2.55086        0.71018
C         -0.77550       -2.37517        0.24838
C         -1.07958       -1.63639       -0.84696
C         -1.43262       -0.49262       -0.21327
C         -2.72859       -0.05572       -0.06503
C         -4.01152       -0.61873       -0.35154
N         -4.96868       -1.24290       -0.37031
C         -2.81122        1.22848        0.42461
C         -1.49855        1.61315        0.48449
C         -1.10027        2.94639        0.81439
N         -0.77694        4.01778        1.04447
C         -0.59008        0.56372        0.16507
C          0.77826        0.67952        0.03828
C          1.72657       -0.41557       -0.10980
H          4.77868       -1.33857       -0.27090
H          3.08905       -3.32439       -0.24896
H          0.78000       -3.45587        1.27207
H         -1.50739       -3.07340        0.64324
H         -1.68507       -2.04924       -1.65044
H         -3.57572        1.92066        0.07522
H          1.19642        1.68094        0.06905
