28
Coordinates from ORCA-job ./opt_b97-3c_parallel
N          2.96187        3.52831       -1.49376
C          2.26561        2.77929       -0.98517
C          1.36029        1.86770       -0.35477
C          0.14480        2.37925        0.20278
C         -0.54230        1.70270        1.15807
C         -1.49748        1.32272        0.27332
N         -2.72749        1.31062       -0.13394
C         -3.78648        0.57684       -0.26306
N         -4.86414        0.62590       -0.03148
C         -2.79701       -0.24441       -0.71237
C         -1.55649        0.03841       -0.21166
C         -0.47590       -0.92573       -0.00915
C         -0.93954       -2.27734       -0.15921
N         -1.12929       -2.93987       -1.07199
C          0.94393       -0.61166        0.18900
C          1.86971       -1.69076        0.37972
C          2.02883       -3.10118        0.58592
N          1.58756       -3.62316        1.50256
C          3.13232       -1.19760        0.27548
C          3.04941        0.09716        0.01088
C          1.74454        0.51317       -0.01070
H         -0.07319        3.42886        0.01314
H         -0.80537        2.18286        2.09798
H         -5.43725        1.43819        0.19548
H         -5.50873       -0.16096       -0.11057
H         -2.91447       -0.80094       -1.64297
H          4.06727       -1.75123        0.37130
H          3.91497        0.74419       -0.11792
