27
Coordinates from ORCA-job ./opt_b97-3c_parallel
N         -5.40158       -0.74493       -0.00462
C         -4.43458       -0.13495       -0.00337
C         -3.20245        0.59483       -0.00248
C         -3.16015        1.95013       -0.00229
C         -1.89726        2.33530       -0.00141
C         -1.07257        1.24815       -0.00129
C          0.34136        1.47807       -0.00049
C          1.45410        0.56569       -0.00042
C          2.76623        1.15327       -0.00036
C          3.09938        2.54644        0.00114
N          3.32835        3.66619        0.00302
C          3.66760        0.15040       -0.00106
C          3.01011       -0.99478       -0.00086
C          1.64320       -0.80195       -0.00073
C          0.81279       -1.91429       -0.00138
C          1.36353       -3.24888       -0.00153
N          1.83135       -4.29255       -0.00154
C         -0.54949       -2.18145       -0.00221
C         -1.69680       -1.32199       -0.00244
C         -1.86663        0.04922       -0.00207
H         -4.02234        2.61295       -0.00321
H         -1.57019        3.37337       -0.00151
H          0.58926        2.53327       -0.00022
H          4.74936        0.26420       -0.00183
H          3.52840       -1.95104       -0.00117
H         -0.89474       -3.21851       -0.00300
H         -2.60679       -1.91221       -0.00328
