28
Coordinates from ORCA-job ./opt_b97-3c_parallel
N         -4.93303        1.78437       -0.67289
C         -4.14011        1.32684        0.01255
C         -3.21771        0.23301        0.09158
C         -3.50237       -1.11575        0.07614
N         -4.43993       -1.69884        0.01189
C         -2.40237       -1.93444        0.16253
C         -1.37889       -1.02949        0.19853
C          0.00766       -1.46043        0.19447
C          1.21466       -0.75832        0.18849
C          2.39072       -1.57647        0.08889
C          3.61502       -0.95702        0.04709
N          4.58555       -1.73792       -0.45898
C          3.14267        0.32031        0.19138
C          4.26095        1.21796        0.21810
N          5.00741        1.92148       -0.28625
C          1.73142        0.51505        0.26573
N          1.34175        1.79341        0.40897
C         -0.00403        1.99471        0.37566
N         -1.12652        1.41429        0.19352
C         -1.80117        0.32778        0.17946
H         -4.99331       -0.98277       -0.45653
H         -4.92838       -2.58197       -0.12309
H         -2.31407       -2.84307       -0.43336
H          0.09744       -2.54250        0.16177
H          2.28859       -2.65722        0.03130
H          5.51038       -1.34800       -0.63355
H          4.70479       -2.69182       -0.12395
H         -0.03642        3.08536        0.51868
