26
Coordinates from ORCA-job ./opt_b97-3c_parallel
N         -3.79526        2.08656       -0.36355
C         -3.63379        0.95634       -0.31647
C         -2.55825        0.03878       -0.09691
C         -3.02446       -1.25438        0.25600
C         -2.08823       -2.20089        0.52769
C         -0.95141       -1.46986        0.27508
C          0.25578       -2.25030        0.19088
C          1.59730       -1.91659       -0.19031
N          2.48269       -2.56412       -0.31678
N          2.36863       -0.78287       -0.07318
C          2.05232        0.54274        0.12453
C          3.15986        1.42938        0.25368
C          2.70394        2.69753        0.18229
C          1.39504        2.63911       -0.00407
C          0.94595        1.34373       -0.04032
C         -0.43752        1.05004       -0.27286
C         -1.19451       -0.08482       -0.06306
H         -4.08667       -1.47696        0.32289
H         -2.21397       -3.21449        0.15216
H          0.10003       -3.31850        0.32155
H          2.17930       -3.49286       -0.60812
H          3.50145       -2.59756       -0.29320
H          4.19769        1.11205        0.27795
H          3.30471        3.60276        0.24907
H          0.75734        3.51557       -0.10464
H         -1.01267        1.94859       -0.47965
