22
Coordinates from ORCA-job ./opt_b97-3c_parallel
N          3.15817       -2.65109        0.24637
C          2.41824       -1.78146        0.19049
C          1.86184       -0.48773       -0.06944
C          2.92716        0.47774        0.09620
C          2.34350        1.71358        0.15448
C          1.00082        1.44138        0.01603
C          0.07425        2.49687       -0.04010
C         -1.32831        2.49411       -0.08344
C         -2.30895        1.49609        0.02016
C         -2.19765        0.09836        0.11962
N         -3.25574       -0.69092        0.34136
C         -2.50993       -1.52019        0.25887
N         -1.52409       -2.02489        0.09773
C         -1.04916       -0.78554       -0.07632
N         -0.13750       -0.42376       -0.98974
C          0.82870       -0.03811       -0.14844
H          4.01008        0.39308        0.16191
H          2.84001        2.67545        0.26002
H          0.50521        3.49583       -0.02525
H         -1.75090        3.49487       -0.13753
H         -3.32460        1.88304        0.06923
H         -3.26751       -2.27388        0.09130
