28
Coordinates from ORCA-job ./opt_b97-3c_parallel
N          1.26147       -3.87519        0.43536
C          1.61432       -2.80836        0.23132
C          2.09564       -1.48349       -0.00581
C          3.37940       -1.17072       -0.32792
C          3.48881        0.14259       -0.41224
C          2.27311        0.69378       -0.15016
C          2.05705        2.11640       -0.02985
C          0.83022        2.85894        0.23000
N          0.68074        3.94771        0.33620
N         -0.54913        2.60774        0.20256
C         -1.29062        1.43164        0.08936
C         -2.64116        1.56017       -0.06504
C         -3.01912        0.24320       -0.08114
N         -4.11405        0.14575       -0.19994
C         -1.98053       -0.64502        0.08543
C         -2.01939       -2.07536        0.13869
N         -2.08185       -3.21608        0.15665
C         -0.78090        0.11467        0.23802
N          0.25497       -0.15949        0.44844
C          1.29230       -0.29882        0.14373
H          4.18870       -1.88443       -0.47080
H          4.40352        0.68607       -0.63971
H          2.95398        2.72179       -0.12829
H         -0.00944        4.69590        0.39622
H          1.58026        4.38256        0.53898
H         -3.05606        2.28596       -0.76495
H         -4.98256        0.67077       -0.29757
H         -4.38575       -0.83152       -0.09008
