29
Coordinates from ORCA-job ./opt_b97-3c_parallel
N          4.24869        2.00526        0.99978
C          3.50733        1.16499        0.77163
C          2.59122        0.11424        0.44371
C          2.76251       -1.24834        0.30973
N          3.65159       -1.89432        0.42568
C          1.65288       -1.93232       -0.13478
C          0.70076       -0.95626       -0.23906
C         -0.67034       -1.30034       -0.58354
C         -1.90772       -0.61160       -0.23550
C         -3.06516       -1.32549       -0.22785
C         -3.69706       -0.28432        0.40368
N         -4.74534       -0.53993        0.65457
C         -3.28350        0.92009        0.91506
C         -2.07683        0.69610        0.32624
C         -1.28253        1.79153        0.07762
C         -0.42683        1.72411       -0.97121
C          0.69115        1.61672       -0.21728
C          1.23771        0.32670        0.06749
H          3.90803       -2.85153        0.19017
H          4.43377       -1.30318        0.14901
H          1.39199       -2.91099        0.26822
H         -0.81048       -2.33806       -0.87247
H         -3.45381       -1.75370       -1.15062
H         -5.48763        0.11428        0.41350
H         -5.14942       -1.47354        0.61300
H         -3.83969        1.83677        0.72230
H         -1.54197        2.76227        0.49427
H         -0.48429        2.44104       -1.78592
H          1.29296        2.49397        0.00089
