29
Coordinates from ORCA-job ./opt_b97-3c_parallel
N         -5.52926        0.26923        0.39701
C         -4.47350       -0.14164        0.24593
C         -3.16095       -0.69485        0.08089
C         -3.11271       -2.10800        0.01298
C         -1.88030       -2.64245       -0.15358
C         -1.07452       -1.53119       -0.14527
C          0.32231       -1.84836       -0.27775
C          1.54203       -1.10187       -0.17444
C          2.70014       -1.83301       -0.21353
C          3.69789       -0.91430       -0.03404
N          4.70899       -1.36113       -0.03816
C          3.22849        0.36957        0.08578
C          4.00947        1.56086        0.25685
N          4.64151        2.50720        0.36378
C          1.79885        0.28938       -0.00137
C          1.05029        1.51494        0.01719
C         -0.34367        1.81458       -0.08380
C         -1.50713        1.05228       -0.08272
C         -2.50052        2.09831       -0.11499
N         -3.19527        2.91640       -0.50978
C         -1.82162       -0.36789       -0.03885
H         -4.01863       -2.70379        0.08305
H         -1.60134       -3.55330        0.37214
H          0.50310       -2.91437       -0.39698
H          2.75084       -2.82431        0.23753
H          5.36724       -0.59177        0.07599
H          5.26230       -2.20993       -0.13710
H          1.64189        2.42160        0.08068
H         -0.40929        2.90593       -0.10329
