30
Coordinates from ORCA-job ./opt_b97-3c_parallel
N          4.77620        1.45451        0.49169
C          3.87750        0.76834        0.32166
C          2.73731       -0.06168        0.07743
C          2.87480       -1.44001       -0.27446
N          3.71780       -2.13622       -0.43679
C          1.70621       -2.12237       -0.47400
C          0.79067       -1.12604       -0.25436
C         -0.59352       -1.53077       -0.06036
C         -1.74812       -0.77447       -0.02638
C         -2.97572       -1.40938        0.30230
C         -3.98968       -0.40727        0.15612
N         -5.08113       -0.48821        0.30123
N         -3.39937        0.77522       -0.27528
C         -2.08978        0.49639       -0.37284
C         -1.14138        1.30081       -0.90290
C         -0.39064        1.89986        0.05136
N         -0.67394        2.93641        0.31476
C          0.88385        1.39484        0.46093
C          1.38677        0.16196        0.07187
H          4.55059       -1.57182       -0.27710
H          4.01494       -3.11008       -0.41519
H          1.55015       -3.11865       -0.05666
H         -0.73727       -2.60555        0.01362
H         -3.11824       -2.44679        0.59176
H         -5.70787        0.31601        0.30688
H         -5.67746       -1.31191        0.22113
H         -1.22850        1.70801       -1.90913
H          0.25296        3.36063        0.28511
H         -1.32382        3.70422        0.48044
H          1.54012        2.11386        0.94707
