29
Coordinates from ORCA-job ./opt_b97-3c_parallel
N          4.62043       -0.57956        1.29479
C          3.68548       -0.04006        0.92085
C          2.50428        0.64820        0.49359
C          2.48637        2.06779        0.59011
C          1.36935        2.69001        0.11550
C          0.57319        1.61732       -0.18772
C         -0.52907        1.78673       -1.10106
C         -1.81778        1.33970       -0.63830
C         -2.95430        2.08208       -0.71117
C         -3.78199        1.63008        0.22487
C         -3.26241        0.61520        0.90676
C         -2.02775        0.36870        0.38600
C         -1.27695       -0.85899        0.49824
C         -1.79996       -1.88483        1.36258
N         -2.23264       -2.71386        2.02077
C         -0.49806       -1.18135       -0.68435
N         -0.70714       -2.16886       -1.15307
C          0.85417       -0.86383       -0.58254
C          1.95380       -1.69245       -1.01778
N          2.65147       -2.38227       -1.60599
C          1.25683        0.42501       -0.03653
H          3.35081        2.60526        0.96965
H          0.96558        3.57126        0.60778
H         -0.57936        2.74149       -1.61644
H         -3.14512        2.90687       -1.39368
H         -4.77027        2.04356        0.41284
H         -3.74598        0.07905        1.72090
H         -1.56622       -2.69592       -1.00568
H         -0.00875       -2.83150       -1.48695
