30
Coordinates from ORCA-job ./opt_b97-3c_parallel
N         -5.19051        0.16769       -0.57111
C         -4.23022       -0.38609       -0.29560
C         -3.00934       -1.03302        0.06406
C         -3.00104       -2.35310        0.62921
C         -1.79154       -2.91621        0.96575
C         -0.99974       -1.86923        0.58694
N          0.28515       -2.01750        0.54315
C          1.48316       -2.01224        0.04703
N          1.59487       -3.10795        0.11051
C          2.27120       -0.84940       -0.30668
C          3.64855       -1.01228       -0.66223
N          4.75709       -1.10081       -0.92369
C          1.67959        0.47978       -0.26853
N          2.32723        1.57441       -0.51295
C          1.89417        2.39308        0.38971
N          2.67159        3.17397        0.49911
C          0.67097        1.86762        0.75194
C         -0.10158        2.58474        1.72633
N         -0.45737        3.66434        1.61661
C          0.28472        0.68445        0.01530
C         -1.08029        0.48379       -0.42023
C         -1.68436        1.58215       -1.11466
N         -1.21931        2.23881       -1.92753
C         -1.68307       -0.73589        0.06468
H         -3.94301       -2.87167        0.78268
H         -1.65363       -3.40555        1.92781
H          2.41235       -3.39280       -0.42755
H          0.93877       -3.88698        0.06612
H          3.61679        3.40044        0.80967
H          2.14947        4.05161        0.51862
