26
Coordinates from ORCA-job ./opt_b97-3c_parallel
N          2.92590       -2.96168        1.58516
C          2.08936       -2.38554        1.06326
C          1.08286       -1.62809        0.38303
C         -0.13827       -2.28653        0.01969
C         -0.96461       -1.82814       -0.95470
C         -1.91246       -1.26999       -0.16131
C         -3.10512       -1.84745        0.16691
C         -3.79232       -0.76994        0.66922
N         -3.09555        0.42482        0.69659
C         -1.86603        0.09602        0.19595
C         -0.87132        1.01784       -0.09149
C         -1.19403        2.41690       -0.00862
N         -0.81614        3.45372        0.29218
C          0.51077        0.72219       -0.45770
N          1.45059        1.57821       -0.70344
C          2.65397        1.49109       -0.23196
N          3.18178        2.43904       -0.02517
C          2.67359        0.12704       -0.21634
C          1.38378       -0.31465       -0.16131
H         -0.27565       -3.29615        0.40084
H         -1.24091       -2.46203       -1.79486
H         -3.59344       -2.55666       -0.49797
H         -4.80708       -0.56551        1.04418
H          4.18565        2.50926        0.14274
H          2.81832        3.39018        0.04142
H          3.43333       -0.42889       -0.76424
