26
Coordinates from ORCA-job ./opt_b97-3c_parallel
N          4.95422        0.24117       -0.19602
C          3.92027        0.72549       -0.14484
C          2.62788        1.33266       -0.11898
C          2.44296        2.72409        0.15449
C          1.16268        3.21261        0.16057
C          0.56182        2.02199       -0.13938
N         -0.72609        1.96015       -0.26121
C         -1.94626        1.52951       -0.19075
N         -2.30333        2.56813       -0.29867
C         -2.41357        0.17844        0.04582
C         -3.81481       -0.03920        0.24372
N         -4.94059       -0.18887        0.37686
C         -1.49388       -0.94526        0.09849
N         -1.77616       -2.18506        0.37250
C         -0.94502       -3.18167        0.39302
C          0.09529       -2.38971        0.01475
C          1.17093       -3.33031       -0.05906
N          2.09444       -3.90914       -0.40462
C         -0.15519       -1.00790       -0.19569
N          0.83518       -0.28108       -0.59256
C          1.36707        0.86081       -0.31518
H          3.30789        3.35032        0.34999
H          0.80773        3.82499        0.98631
H         -3.17808        2.14850       -0.60701
H         -2.27933        3.51210       -0.67817
H         -1.43031       -4.13392        0.65460
