27
Coordinates from ORCA-job ./opt_b97-3c_parallel
N          2.12445       -3.91505        1.12069
C          1.42276       -3.09320        0.74916
C          0.52342       -2.06762        0.26491
C         -0.62208       -2.56100       -0.37220
C         -1.82962       -1.96694       -0.75143
C         -2.41497       -0.74670       -0.37234
C         -3.42589       -0.32330       -0.50700
C         -3.83602        0.70754        0.39585
N         -3.04475        0.96083        1.11808
C         -1.99646        0.39524        0.49784
C         -0.77082        1.06697        0.36793
C         -0.59272        2.40879        0.88167
N         -0.43731        3.47131        1.27313
C          0.26701        0.44323       -0.33017
C          1.27629        0.77810       -0.65369
C          1.30236        1.61910       -1.81635
N          1.51995        2.64304       -2.27481
C          2.39746        0.31089        0.10848
N          3.68397        0.65429       -0.19667
N          2.08972       -0.36220        0.91935
C          0.93530       -0.71784        0.32567
H         -0.59853       -3.62893       -0.58642
H         -2.48094       -2.62958       -1.31858
H         -4.09669       -0.67900       -1.28369
H         -4.77465        1.24718        0.44614
H          3.86081        1.39986       -0.86133
H          4.43207        0.39511        0.43725
