23
Coordinates from ORCA-job ./opt_b97-3c_parallel
N         -3.33010        2.74261       -0.00379
C         -3.11860        1.61898       -0.00432
C         -2.33754        0.41891       -0.00199
C         -3.13012       -0.75940        0.00029
C         -2.42896       -1.91733        0.01026
C         -1.13174       -1.47880        0.00171
C         -0.13403       -2.51560        0.00040
C          1.29605       -2.50677       -0.00145
N          2.30217       -1.57222       -0.00173
C          2.29972       -0.20006       -0.00207
C          3.57572        0.41947       -0.00232
C          3.32951        1.82582       -0.00291
N          1.96162        2.04651       -0.00338
C          1.39986        0.82563       -0.00281
C         -0.03293        0.91152       -0.00305
C         -1.03870       -0.03366       -0.00121
H         -4.21622       -0.73505       -0.00032
H         -2.80911       -2.93637       -0.00775
H         -0.53722       -3.52416        0.00182
H          1.76432       -3.50225       -0.00046
H          4.54359       -0.07166       -0.00209
H          4.07616        2.63360       -0.00305
H         -0.39160        1.93871       -0.00387
