24
Coordinates from ORCA-job ./opt_b97-3c_parallel
N         -3.87240        2.08550        0.46727
C         -3.30392        1.11481        0.27120
C         -2.54503       -0.07788        0.05363
C         -3.09326       -1.31017       -0.12496
C         -2.12989       -2.21197       -0.23832
C         -0.91872       -1.59800       -0.13864
N          0.24817       -2.32328       -0.05956
C          1.39825       -1.60358        0.00814
N          1.95862       -2.55609        0.13728
N          2.49960       -0.81145        0.06922
C          2.30936        0.55305       -0.00196
N          3.35935        1.43017       -0.08484
C          2.81868        2.70270       -0.09506
C          1.45773        2.68114        0.05017
C          1.11961        1.35834        0.05331
C         -0.30231        1.03907        0.15088
C         -1.10877       -0.17621        0.02825
H         -4.15957       -1.51928       -0.19385
H         -2.28933       -3.27422       -0.41555
H          2.96924       -2.70403        0.13604
H          1.58644       -3.46842        0.41390
H          3.41431        3.62516       -0.18617
H          0.83306        3.43298       -0.42994
H         -0.89621        1.94094        0.25649
