30
Coordinates from ORCA-job ./opt_b97-3c_parallel
N          2.32432        3.17372        1.37403
C          1.61137        2.39950        0.92905
C          0.68294        1.46533        0.36488
C         -0.61049        1.96096        0.00360
C         -1.42187        1.30342       -0.85680
C         -2.35104        0.69333       -0.08322
C         -3.60066        1.20343        0.09150
C         -4.04447       -0.06150        0.39192
N         -5.14321       -0.14082        0.51518
C         -3.40730       -1.23502        0.71331
C         -2.24133       -0.65974        0.31290
C         -1.13622       -1.46750        0.11076
C          0.24226       -1.05805       -0.10164
C          1.19082       -2.10536       -0.27328
C          2.51632       -1.76366       -0.28878
N          3.37699       -2.78029       -0.11613
C          2.35646       -0.41604       -0.06871
C          3.57733        0.33278       -0.11621
N          4.56527        0.90376       -0.18391
C          1.00435        0.07919        0.03669
H         -0.82651        2.99610        0.25565
H         -1.68522        1.73463       -1.81994
H         -4.07271        1.80839       -0.68141
H         -5.56655       -1.06197        0.41837
H         -5.85483        0.53710        0.24949
H         -3.72666       -2.19026        0.29704
H         -1.29488       -2.53986        0.18356
H          0.86603       -3.14024       -0.34084
H          3.18709       -3.69156       -0.52845
H          4.38053       -2.61301       -0.16320
