27
Coordinates from ORCA-job ./opt_b97-3c_parallel
N         -1.96429       -3.92731       -0.65585
C         -2.06982       -2.83363       -0.34214
C         -2.22716       -1.44680       -0.02588
C         -3.46863       -0.92046        0.45822
C         -3.59240        0.44001        0.57429
C         -2.31569        0.73456        0.18698
N         -2.09603        2.05317       -0.06127
C         -0.79571        2.52639       -0.14657
N         -1.05753        3.53139       -0.53834
N          0.50159        2.55965       -0.09327
C          1.21262        1.47805       -0.01997
C          2.58018        1.41971        0.39262
C          3.19064        0.18866        0.36729
N          4.52754        0.06829        0.41592
C          2.09581       -0.52804       -0.05713
C          2.29805       -1.93626       -0.22672
N          2.72893       -2.91605       -0.62653
C          0.89151        0.19317       -0.29522
N         -0.24162       -0.28965       -0.68013
C         -1.43303       -0.34958       -0.17750
H         -4.29687       -1.59575        0.64823
H         -4.04418        0.89184        1.45610
H         -0.40852        4.16090       -1.01082
H         -1.98393        3.87089       -0.79958
H          3.08699        2.32936        0.70218
H          4.95623       -0.85749        0.40829
H          5.08691        0.66350        1.02431
