26
Coordinates from ORCA-job ./opt_b97-3c_parallel
N          2.54556       -3.19797       -1.72348
C          1.98273       -2.53078       -0.98704
C          1.25795       -1.67404       -0.10079
C          0.45996       -2.43884        0.71591
C         -0.84853       -2.24680        0.90554
C         -1.55056       -1.20390        0.36405
C         -2.66441       -1.37574       -0.40276
C         -3.16552       -0.09847       -0.48007
N         -4.07627        0.31492       -0.95595
N         -2.37287        0.83401        0.17517
C         -1.32651        0.15068        0.74614
N         -0.31595        0.49573        1.48618
C          0.76511        0.58911        0.77756
C          1.35875        1.86455        0.49804
C          1.00013        3.20660        0.84762
N         -0.03864        3.49143        0.46086
C          2.41177        1.71967       -0.34689
C          2.51025        0.43541       -0.64841
C          1.54269       -0.26176        0.01869
H          0.92051       -3.28222        1.23144
H         -1.37549       -2.93311        1.56649
H         -3.31945       -2.23393       -0.25796
H         -4.37740        1.27585       -1.13060
H         -4.86718       -0.26539       -1.24190
H          3.06451        2.51199       -0.71085
H          3.27102        0.00423       -1.29697
