29
Coordinates from ORCA-job ./opt_b97-3c_parallel
N          5.62607        1.56535       -0.68828
C          4.80434        0.80307       -0.46434
C          3.78624       -0.17418       -0.22327
C          3.97396       -1.51768       -0.16159
C          2.81915       -2.10779        0.10212
C          1.82400       -1.17790        0.18713
C          0.46795       -1.61816        0.35311
C         -0.76003       -0.87790        0.20908
C         -2.00254       -1.60339        0.13668
C         -2.11574       -3.03462        0.18398
N         -2.17400       -4.17576        0.20922
C         -3.15024       -0.85633       -0.02708
N         -4.40487       -1.30990       -0.22641
C         -2.55401        0.38381        0.00194
C         -3.51688        1.43973       -0.13100
N         -3.89992        2.06531       -1.00820
C         -1.13122        0.42375        0.13355
C         -0.49960        1.70515        0.26292
C         -0.77496        3.10953        0.34790
N         -1.41940        3.90604        0.85828
C          0.81963        2.08628        0.30045
N          2.02740        1.44911        0.11881
C          2.40033        0.12285       -0.00272
H          4.92665       -2.02664       -0.28902
H          2.68676       -3.18161        0.21699
H          0.37799       -2.69426        0.45324
H         -5.09244       -0.72018       -0.69253
H         -4.56082       -2.27230       -0.52076
H          1.73759        2.69392        0.34827
