28
Coordinates from ORCA-job ./opt_b97-3c_parallel
N          5.31936        0.83045        0.29030
C          4.35761        0.21226        0.28927
C          3.13412       -0.53042        0.30914
C          3.17164       -1.87090        0.82016
C          2.01271       -2.60543        0.84619
C          1.21069       -1.63046        0.32800
N          0.11716       -1.98461       -0.23096
C         -1.10150       -1.91477       -0.61135
N         -1.05937       -2.96909       -0.93655
C         -1.97167       -0.83049       -0.29118
C         -3.36983       -1.12632       -0.41989
N         -4.47214       -1.39487       -0.55566
C         -1.44298        0.50031        0.03527
C         -2.34406        1.54177        0.46507
C         -3.69445        1.50312        0.93903
N         -4.76035        1.49893        1.35073
C         -1.60046        2.75415        0.39566
N         -0.32099        2.49242       -0.03909
C         -0.23481        1.15970       -0.20335
C          1.13149        0.75611       -0.58614
C          2.06843        1.74313       -1.06130
N          2.63617        2.46471       -1.74286
C          1.80182       -0.39353        0.01161
H          4.11466       -2.27512        1.17626
H          1.72276       -3.16015        1.73538
H         -0.81467       -3.92681       -1.17766
H         -1.96262       -2.78170       -1.36859
H         -1.93684        3.77376        0.63701
