26
Coordinates from ORCA-job ./opt_b97-3c_parallel
N         -4.85739       -1.79820        0.00788
C         -3.78266       -1.41004        0.00763
C         -2.41943       -0.96484        0.00664
C         -1.45211       -2.02791        0.00552
C         -0.09752       -2.03616        0.00281
C          1.05176       -1.31847        0.00289
N          2.29719       -1.94304        0.00157
C          3.19338       -0.94673        0.00204
N          4.24236       -1.30038        0.00141
C          2.66454        0.31305        0.00345
C          3.28505        1.60058        0.00451
N          3.82748        2.60639        0.00541
C          1.25474        0.09119        0.00415
N          0.39441        1.17016        0.00597
C         -0.95140        1.20624        0.00679
C         -1.39737        2.56016        0.00805
C         -2.74054        2.62018        0.00911
C         -3.17419        1.37338        0.00848
C         -2.13497        0.46485        0.00702
H         -1.91477       -3.01339        0.00590
H          0.18116       -3.08966       -0.00001
H          4.99055       -0.60441        0.00340
H          4.70690       -2.20798        0.00235
H         -0.74389        3.42857        0.00833
H         -3.35128        3.52031        0.01046
H         -4.23390        1.12771        0.00927
