26
Coordinates from ORCA-job ./opt_b97-3c_parallel
N         -4.49754       -1.82319       -0.10153
C         -3.79619       -0.93643        0.06949
C         -2.54385       -0.23964        0.04535
C         -2.99257        1.12516        0.05193
N         -3.93369        2.11778        0.08847
C         -1.65192        1.63332       -0.00921
C         -0.76077        0.97769       -0.01901
C          0.61431        1.28619       -0.04982
C          1.85490        0.62744       -0.05271
N          3.04143        1.24634       -0.11206
C          3.46451        0.21121       -0.03106
N          4.79597        0.52485       -0.07211
N          3.47292       -0.90513        0.07633
C          2.13839       -0.80690        0.02875
N          1.23918       -1.64064        0.57751
C          0.52395       -2.00434       -0.17472
C         -0.85850       -1.64029       -0.07849
C         -1.44619       -0.36496       -0.01091
H         -3.65301        3.07004       -0.11714
H         -4.90892        1.86769       -0.03590
H         -1.43188        2.69835        0.00132
H          0.77160        2.36300       -0.08264
H          5.48620       -0.19287        0.11754
H          5.08645        1.49456       -0.01843
H          0.94828       -3.00314       -0.18615
H         -1.44659       -2.55655       -0.07423
