24
Coordinates from ORCA-job ./opt_b97-3c_parallel
N          4.58821       -0.10077       -0.33970
C          3.56579        0.38460       -0.18190
C          2.29656        1.02409       -0.02043
C          2.12950        2.36845        0.07567
C          0.83830        2.64857        0.16074
C          0.10127        1.50186        0.11413
C         -1.35019        1.59359        0.13584
C         -2.36714        0.57130        0.04875
N         -3.63212        0.90849        0.02208
C         -4.22950       -0.22900       -0.07764
C         -3.45316       -1.28445       -0.10131
C         -2.18913       -0.79502       -0.00785
N         -1.58702       -1.93652       -0.03070
C         -0.33831       -1.63887       -0.05434
C          0.86343       -0.99101       -0.06009
C          1.67058       -2.17348       -0.13977
N          2.40788       -2.89644        0.35116
C          1.01255        0.37983        0.00876
H          2.93248        3.10233        0.08687
H          0.42929        3.65254        0.25137
H         -1.73893        2.60631        0.19710
H         -5.29389        0.04653       -0.11821
H         -3.80839       -2.31567       -0.18985
H         -0.71348       -2.67690       -0.09002
