27
Coordinates from ORCA-job ./opt_b97-3c_parallel
N         -4.63238       -1.72345       -0.73118
C         -3.76247       -1.01754       -0.50800
C         -2.65380       -0.16447       -0.19915
C         -2.84570        1.18576        0.20849
N         -3.70653        1.85577        0.38571
C         -1.68397        1.85866        0.45950
C         -0.72294        0.90496        0.22827
C          0.64680        1.37242        0.06724
C          1.81471        0.64520       -0.06106
N          2.99977        1.15094       -0.41131
C          3.91615        0.12754       -0.26533
N          4.95638        0.38822       -0.52056
N          3.29304       -0.99698        0.24361
C          1.99803       -0.69116        0.38304
C          1.08976       -1.47182        1.01362
C          0.47511       -2.02961       -0.05739
C         -0.76372       -1.52570       -0.55867
C         -1.29396       -0.31125       -0.15111
H         -4.53499        1.26592        0.32129
H         -4.03585        2.81799        0.43898
H         -1.53893        2.88719        0.12392
H          0.73933        2.45456        0.02671
H          5.74847       -0.25049       -0.45994
H          5.34700        1.32960       -0.54422
H          1.36154       -2.07448        1.87775
H          0.75472       -3.02704       -0.38680
H         -1.35896       -2.24349       -1.11652
