29
Coordinates from ORCA-job ./opt_b97-3c_parallel
N         -3.08405        3.37743       -0.44894
C         -2.28885        2.57854       -0.26301
C         -1.27039        1.60954        0.00616
C         -0.35899        2.22218        0.81166
C          0.84548        2.61580        0.32829
C          1.85803        1.64147        0.08476
N          3.07290        2.01497       -0.44604
C          3.82179        0.87477       -0.68945
N          4.85333        1.05786       -1.03788
C          2.96357       -0.12148       -0.31490
C          1.80954        0.29432        0.20470
C          0.92619       -0.66261        0.66032
C          1.53041       -1.63796        1.52630
N          2.05033       -2.38827        2.21008
C         -0.43796       -0.82757        0.19785
C         -1.08625       -2.03975        0.08924
C         -0.85973       -3.44324        0.27041
N         -0.04190       -3.87894       -0.40042
C         -2.34880       -1.91187       -0.45512
C         -2.50523       -0.56043       -0.60707
C         -3.79084       -0.04223       -0.95863
N         -4.83222        0.34218       -1.22662
C         -1.34621        0.18211       -0.22508
H         -0.60722        2.42399        1.85236
H          1.05953        3.65893        0.11361
H          5.61284        0.41794       -0.80289
H          5.30119        1.91861       -1.35260
H          3.24484       -1.17059       -0.40536
H         -2.71814       -2.59548       -1.22013
