28
Coordinates from ORCA-job ./opt_b97-3c_parallel
N         -2.82734        3.15620       -1.33832
C         -2.08198        2.39740       -0.92086
C         -1.15541        1.46592       -0.35510
C          0.13890        1.94614        0.02966
C          0.90018        1.30850        0.95019
C          1.85193        0.73993        0.17327
N          3.07123        0.52204       -0.20543
C          3.99478       -0.37101       -0.36282
N          5.09271       -0.42092       -0.26258
C          2.90823       -1.17022       -0.55678
C          1.74276       -0.58748       -0.15219
C          0.64795       -1.42029        0.01765
C         -0.74198       -1.04674        0.21824
C         -1.70463       -2.08960        0.33900
C         -2.96479       -1.58673        0.25238
N         -4.11400       -2.27141        0.33071
C         -2.87428       -0.27457        0.06092
C         -1.56809        0.13073        0.03955
H          0.37415        2.97268       -0.24260
H          1.15827        1.79308        1.88877
H          5.71706        0.38107       -0.18116
H          5.69379       -1.24377       -0.30595
H          3.01829       -2.25379       -0.59737
H          0.80250       -2.49369       -0.05332
H         -1.44020       -3.14224        0.37372
H         -4.13610       -3.26798        0.12125
H         -4.98320       -1.85972       -0.00510
H         -3.73388        0.38614       -0.03792
