26
Coordinates from ORCA-job ./opt_b97-3c_parallel
N         -4.87513       -2.18709       -0.40571
C         -4.21202       -1.26996       -0.24513
C         -3.40562       -0.09900       -0.07796
C         -3.86587        1.17812       -0.03933
C         -2.84655        2.00436        0.13331
C         -1.67803        1.30267        0.18682
C         -0.43602        2.01393        0.29393
C          0.90337        1.52271        0.16982
C          1.94485        2.50010        0.11624
C          3.22280        2.02825       -0.04624
C          2.92257        0.68793       -0.03481
C          4.19532        0.03781       -0.14493
N          4.77563       -0.50058       -0.96841
C          1.54451        0.33315        0.08300
C          1.20439       -1.05380        0.16857
C          1.86332       -2.32531        0.19633
N          2.67757       -2.99151        0.64620
C         -0.00530       -1.69880        0.24318
N         -1.32810       -1.31795        0.14880
C         -1.97759       -0.09766        0.06622
H         -4.90900        1.47404       -0.12383
H         -2.93348        3.08615        0.20694
H         -0.53141        3.09374        0.36388
H          1.71226        3.55938        0.16902
H          3.86555        2.46306       -0.81119
H         -0.70736       -2.54575        0.30448
