25
Coordinates from ORCA-job ./opt_b97-3c_parallel
N         -4.45444       -2.29788       -0.00707
C         -3.42209       -1.80797       -0.00493
C         -2.09995       -1.24016       -0.00332
C         -1.05896       -2.21386       -0.00208
C          0.27782       -2.06950       -0.00367
C          1.37037       -1.28484        0.00271
N          2.64814       -1.46507        0.00359
C          3.72014       -0.74390        0.00392
N          4.78063       -1.04420        0.00433
C          2.88305        0.33039        0.00568
C          1.53315        0.07186        0.00223
C          0.53133        1.13872        0.00034
C          1.09593        2.47402        0.00187
N          1.58961        3.50463        0.00367
C         -0.88979        1.14950       -0.00180
N         -1.49394        2.35950       -0.00228
C         -2.86557        2.24028       -0.00446
N         -3.10864        0.89292       -0.00519
C         -1.91417        0.20729       -0.00343
H         -1.42258       -3.24014       -0.00216
H          0.66523       -3.08738       -0.00758
H          5.22934       -1.96002        0.00417
H          5.53628       -0.35870        0.00576
H          3.31286        1.32977        0.00179
H         -3.63446        3.02834       -0.00530
