28
Coordinates from ORCA-job ./opt_b97-3c_parallel
N          2.77521        2.89490       -1.51588
C          1.99129        2.20938       -1.04699
C          1.04995        1.31459       -0.44267
C         -0.20524        1.83873        0.00412
C         -0.96043        1.20948        0.93626
C         -1.89141        0.60989        0.15488
C         -3.12325        1.15449       -0.04540
C         -3.57216       -0.09465       -0.39479
N         -4.64246       -0.11223       -0.67928
C         -2.98423       -1.31581       -0.61110
C         -1.81092       -0.75504       -0.21015
C         -0.72462       -1.57776        0.02705
C          0.66694       -1.18077        0.16702
C          1.58444       -2.24805        0.35357
C          2.88538       -1.67294        0.19659
N          3.95899       -1.92967        0.19379
N          2.77032       -0.36373       -0.09208
C          1.41649       -0.04432       -0.08376
H         -0.42138        2.87418       -0.24875
H         -1.24312        1.71307        1.85865
H         -3.61293        1.73876        0.73311
H         -5.21111       -0.95743       -0.68778
H         -5.29210        0.67250       -0.67102
H         -3.36387       -2.22014       -0.13590
H         -0.90689       -2.64979        0.00781
H          1.35064       -3.29549        0.52203
H          4.75951       -1.30075        0.25862
H          4.34513       -2.86935        0.10083
