25
Coordinates from ORCA-job ./opt_b97-3c_parallel
N          4.39689       -1.78996        0.05868
C          3.49092       -1.09328        0.02249
C          2.38166       -0.18492       -0.01131
C          2.58568        1.21879       -0.06193
N          3.45175        1.90643       -0.09845
C          1.42157        1.92251       -0.08239
C          0.46663        0.93397       -0.05877
C         -0.88927        1.40793       -0.06918
C         -2.14285        0.71283       -0.02886
C         -3.27613        1.56995       -0.02236
C         -4.40834        0.71100        0.01486
N         -3.96551       -0.59930        0.02668
C         -2.61915       -0.57179        0.00212
C         -2.01110       -1.80303        0.00538
C         -0.63974       -2.20437        0.00525
N          0.60360       -1.61093        0.00959
C          1.01739       -0.33575       -0.01601
H          4.22314        1.24416       -0.03557
H          3.86210        2.83747       -0.12721
H          1.29183        2.82946        0.50950
H         -0.98035        2.49071       -0.09977
H         -3.28786        2.65533       -0.03914
H         -5.50170        0.83147        0.03492
H         -2.66822       -2.66859        0.01771
H         -0.40450       -3.27892        0.02001
