30
Coordinates from ORCA-job ./opt_b97-3c_parallel
N         -4.74866       -0.44372       -1.28039
C         -3.73438       -0.79985       -0.89276
C         -2.48604       -1.28851       -0.39304
C         -2.29305       -2.57154        0.01905
C         -1.09210       -2.69422        0.57337
C         -0.42223       -1.50977        0.49816
C          0.98217       -1.41304        0.85543
C          1.96029       -0.48026        0.32830
C          3.32496       -0.88083        0.34809
C          4.06534        0.02632       -0.34083
N          5.38707        0.02031       -0.56616
C          3.22384        0.95708       -0.78166
C          1.95122        0.71730       -0.34849
C          0.87849        1.65827       -0.31557
C         -0.18689        1.55833        0.51471
N          0.07243        2.30814        1.59832
C         -1.15984        0.89343       -0.15197
C         -2.13985        1.82538       -0.62786
N         -2.90311        2.59633       -0.98795
C         -1.29895       -0.53703       -0.09296
H         -3.02323       -3.37296       -0.06968
H         -0.69095       -3.61689        0.98672
H          1.39986       -2.31006        1.30214
H          3.67233       -1.82486        0.75640
H          5.78073        0.55162       -1.34009
H          5.92311       -0.83889       -0.46144
H          3.51736        1.82476       -1.36913
H          1.03058        2.59430       -0.84606
H         -0.68462        2.80813        2.06047
H          0.89408        2.90984        1.61268
