27
Coordinates from ORCA-job ./opt_b97-3c_parallel
N          1.77327       -3.50069       -0.66499
C          2.56360       -2.70899       -0.90059
C          2.47430       -1.36373       -0.41946
C          3.60113       -0.79680        0.25213
C          3.48450        0.44374        0.82204
C          2.20166        0.69361        0.41258
C          1.61576        1.99150        0.53590
C          0.75279        2.32535       -0.55282
N          0.54389        3.40376       -0.67685
N         -0.52077        2.40864       -0.17938
C         -1.26716        1.32160        0.07564
N         -2.60530        1.39181        0.35547
C         -3.06307        0.08575        0.25692
N         -4.12601        0.30055        0.50755
C         -2.10955       -0.83039       -0.15342
C         -2.37768       -1.89323       -0.33173
N         -3.15831       -2.72834       -0.29979
C         -0.98381       -0.04876       -0.20877
N          0.21357       -0.67674       -0.57009
C          1.54970       -0.36980       -0.29938
H          4.51753       -1.37093        0.35733
H          4.27239        1.18413        0.69671
H          2.16772        2.77249        1.05602
H          0.05904        4.28445       -0.85128
H          1.52308        3.57671       -0.90484
H         -4.93028        0.89355        0.72213
H         -4.50553       -0.64843        0.44269
