25
Coordinates from ORCA-job ./opt_b97-3c_parallel
N          4.48008       -1.45354        1.55456
C          3.47541       -1.18068        1.08253
C          2.22920       -0.86334        0.44925
C          1.41768       -1.95035       -0.00503
C          0.51999       -1.81125       -1.00829
C         -0.65942       -1.71117       -0.35654
C         -1.67727       -2.67929       -0.12550
C         -2.87383       -2.23324        0.36100
C         -2.56748       -0.89402        0.33700
C         -3.66844       -0.07924        0.76199
N         -4.56965        0.54443        1.08661
C         -1.22114       -0.52065       -0.04356
C         -0.69425        0.76566       -0.16923
C         -1.62685        1.86107       -0.23885
N         -2.28756        2.47211       -0.94442
C          0.65468        1.16090       -0.25168
N          0.98496        2.49536       -0.42865
C          2.34426        2.66164       -0.24113
N          2.90304        1.44578        0.09730
C          1.90513        0.49913        0.05313
H          1.73951       -2.94829        0.28280
H          0.60816       -2.39310       -1.92256
H         -1.52455       -3.71862       -0.39515
H         -3.32667       -2.69463        1.23710
H          2.72980        3.68725       -0.34343
