27
Coordinates from ORCA-job ./opt_b97-3c_parallel
N         -3.85445       -1.87757        1.67183
C         -2.89640       -1.58779        1.12026
C         -1.71913       -1.20148        0.40456
C         -0.91666       -2.22010       -0.20280
C         -0.08550       -1.95273       -1.24488
C          0.99703       -2.01970       -0.43117
C          1.89940       -3.03557       -0.31836
C          2.95999       -2.57658        0.33183
C          2.81227       -1.30572        0.67694
C          1.58778       -0.90257        0.23389
C          1.11525        0.46523        0.10878
C          2.07421        1.49527        0.38780
N          2.84943        2.29568        0.64242
C         -0.26251        0.84292       -0.22815
C         -0.60880        2.16430       -0.45004
C         -0.14492        3.51002       -0.62463
N          0.36937        4.29778       -1.27341
C         -1.97610        2.25078       -0.42819
C         -2.51605        1.07080       -0.17012
C         -1.52611        0.14661       -0.08172
H         -1.15824       -3.24973        0.05503
H         -0.13566       -2.53615       -2.16144
H          1.77878       -4.04354       -0.70856
H          3.84331       -3.17043        0.55469
H          3.53880       -0.70600        1.22081
H         -2.56391        3.15612       -0.58320
H         -3.58352        0.87059       -0.10986
