27
Coordinates from ORCA-job ./opt_b97-3c_parallel
N         -4.89126        1.68019        0.79527
C         -4.13857        0.83278        0.65014
C         -3.18284       -0.20767        0.42920
C         -3.42782       -1.53919        0.28261
C         -2.32366       -2.16839       -0.10704
C         -1.28541       -1.28823       -0.19722
C          0.06392       -1.73608       -0.50373
C          1.36517       -1.12007       -0.27278
C          2.47687       -1.91157       -0.28432
C          3.47082       -1.08813        0.18638
N          4.56323       -1.16551        0.33153
N          3.04456        0.20650        0.42762
C          1.70674        0.21023        0.12438
C          1.01634        1.39558        0.04110
C          1.41921        2.73972        0.33700
N          2.38077        3.32557        0.13525
C         -0.07730        1.43843       -0.75228
C         -1.23784        1.30238       -0.07994
C         -1.80384        0.00929        0.11882
H         -4.39602       -2.01337        0.42974
H         -2.26066       -3.23568       -0.30845
H          0.11970       -2.79458       -0.74285
H          2.42374       -2.95241        0.03082
H          5.15576       -1.98715        0.21274
H          5.19112       -0.36162        0.31315
H         -0.04837        1.88048       -1.74729
H         -1.84242        2.17446        0.15225
