32
Coordinates from ORCA-job ./opt_b97-3c_parallel
N          5.33142        0.37245       -1.23898
C          4.43039       -0.21116       -0.85362
C          3.32543       -0.98916       -0.38205
C          3.39441       -2.33649       -0.20783
C          2.25175       -2.78182        0.29757
C          1.36405       -1.75480        0.42548
C          0.01183       -2.00352        0.88760
C         -1.16963       -1.26838        0.49898
C         -2.42567       -1.94599        0.49527
C         -3.46777       -1.27314       -0.10563
N         -4.57908       -2.02856       -0.05758
C         -2.79498       -0.12717       -0.46930
C         -3.79830        0.72065       -1.03878
N         -4.60913        1.51966       -1.14221
C         -1.41662       -0.08483       -0.10841
C         -0.61505        1.09444       -0.16836
C         -0.94740        2.30784       -0.85805
N         -1.31040        3.26721       -1.36156
C          0.44397        1.28592        0.66379
N          0.11592        1.87105        1.83274
C          1.61599        0.84491        0.14189
C          2.45289        1.99275       -0.05623
N          3.11932        2.91523       -0.16436
C          2.02073       -0.53633        0.01872
H          4.25730       -2.95541       -0.44288
H          2.03856       -3.82559        0.51681
H         -0.17472       -3.01373        1.24066
H         -2.49081       -2.96726        0.86363
H         -5.48601       -1.61106       -0.25968
H         -4.70623       -2.70700        0.69106
H          0.82029        2.41485        2.32874
H         -0.75214        2.40279        1.88707
