27
Coordinates from ORCA-job ./opt_b97-3c_parallel
N          3.15063       -3.13323        0.94906
C          2.97418       -2.04852        0.63856
C          2.69063       -0.70409        0.24512
C          3.56652        0.17231       -0.32597
C          2.92646        1.26808       -0.71751
C          1.61511        1.16093       -0.37207
C          0.67449        2.23561       -0.41138
C         -0.35630        2.13485        0.57521
N         -0.83607        3.12301        0.72832
N         -1.58177        1.85226        0.02534
C         -1.89911        0.52302       -0.24990
C         -3.17219        0.18717       -0.61405
C         -3.25016       -1.15837       -0.32606
N         -3.96040       -2.00864       -0.35486
N         -2.05005       -1.68003        0.14021
C         -1.16708       -0.63004        0.17176
C          0.19897       -0.88962        0.58499
C          1.38130       -0.11659        0.23666
H          4.63190       -0.00969       -0.46016
H          3.38945        2.12256       -1.20693
H          0.98135        3.19325       -0.82997
H         -0.04279        3.52570        1.23343
H         -1.52485        3.87825        0.68875
H         -4.01261        0.85276       -0.42204
H         -4.95473       -1.96958       -0.59025
H         -3.77160       -3.00125       -0.19776
H          0.38001       -1.90020        0.94062
