26
Coordinates from ORCA-job ./opt_b97-3c_parallel
N         -3.02330        3.17949       -1.44281
C         -2.24270        2.46847       -1.00596
C         -1.24837        1.61086       -0.43119
C         -0.01128        2.19098        0.00136
C          0.78948        1.59398        0.91893
C          1.73676        1.00003        0.15278
C          2.95762        1.56696       -0.05074
C          3.44851        0.33060       -0.39183
N          4.54249        0.32425       -0.56948
C          2.84449       -0.86036       -0.71201
C          1.66447       -0.35036       -0.27181
N          0.60799       -1.20598        0.01905
C         -0.68840       -0.84232        0.16253
C         -1.52802       -1.96258        0.42120
C         -1.63457       -3.36336        0.68415
N         -1.57009       -4.47692        0.43360
C         -2.86242       -1.45921        0.30261
N         -2.85773       -0.15602       -0.01659
C         -1.53064        0.23234       -0.06878
H          0.14810        3.23701       -0.24645
H          1.04755        2.09472        1.84871
H          3.42639        2.17648        0.72093
H          4.98073       -0.57980       -0.40179
H          5.27093        1.02687       -0.45753
H          3.21280       -1.81090       -0.32817
H         -3.90723       -1.79925        0.36156
