30
Coordinates from ORCA-job ./opt_b97-3c_parallel
N         -2.36659       -3.93936       -1.54635
C         -1.68981       -3.13341       -1.10201
C         -0.85884       -2.13579       -0.49867
C          0.43513       -2.52309       -0.03032
C          1.00706       -1.88774        1.02120
C          1.98866       -1.16612        0.43382
C          3.38230       -1.44605        0.43879
C          4.01401       -0.27886       -0.10614
N          4.94638        0.25537       -0.36437
N          3.03568        0.64920       -0.43962
C          1.85866        0.07614       -0.10664
C          0.62621        0.86335       -0.20476
C          0.84869        2.24741       -0.53472
N          1.06072        2.87920       -1.46370
C         -0.73998        0.37231        0.03762
C         -1.81552        1.31597        0.19186
C         -2.03031        2.73069        0.33469
N         -1.66845        3.38439        1.20064
C         -3.01840        0.66625        0.19354
N         -4.29512        1.07530        0.32095
C         -2.73173       -0.61712        0.01865
C         -1.38724       -0.85782       -0.06067
H          0.77493       -3.51709       -0.31091
H          1.17798       -2.41274        1.95845
H          3.87341       -2.32462        0.84526
H          5.07128        1.24276       -0.59092
H          5.85604       -0.07084       -0.03757
H         -5.00984        0.44196        0.67531
H         -4.50300        2.01059        0.66873
H         -3.49215       -1.39617       -0.01063
