26
Coordinates from ORCA-job ./opt_b97-3c_parallel
N         -3.56123       -2.93610       -0.00673
C         -2.59375       -2.33066       -0.00658
C         -1.41061       -1.52006        0.00216
C         -0.17088       -2.24321        0.00345
C          1.11797       -1.82785        0.05154
C          1.97921       -0.78617       -0.00386
C          3.40100       -0.88705       -0.02912
C          3.94870        0.35286       -0.04849
N          5.24292        0.69905       -0.08918
C          2.93454        1.20862       -0.03162
C          1.73065        0.55770       -0.00504
N          0.66867        1.37322        0.01249
C         -0.68722        1.06850        0.02103
N         -1.47696        2.19565        0.01902
C         -2.80923        1.81451        0.01026
N         -3.77104        2.35849        0.00079
N         -2.84951        0.43092        0.00860
C         -1.56046       -0.07206        0.01359
H         -0.30729       -3.32392       -0.00610
H          1.72150       -2.73216        0.12015
H          3.93881       -1.83093       -0.01917
H          5.55382        1.62147        0.21325
H          5.97189        0.02605        0.14787
H          3.05576        2.29128       -0.04572
H         -3.88471        3.37302       -0.02894
H         -4.71944        1.97928       -0.01652
