25
Coordinates from ORCA-job ./opt_b97-3c_parallel
N          2.48123        3.42906        0.63592
C          2.50128        2.31999        0.36553
C          2.47703        0.92275        0.06172
C          3.57474        0.17519       -0.23345
C          3.22064       -1.09201       -0.39022
C          1.87742       -1.21644       -0.20634
N          1.29283       -2.44404        0.01765
C         -0.06708       -2.48547        0.04648
N         -0.02747       -3.55621        0.34330
N         -1.42518       -2.38410        0.04800
C         -1.96600       -1.13212       -0.16759
N         -3.31937       -0.97716       -0.39857
C         -3.60935        0.37369       -0.40201
C         -2.42420        1.11096       -0.10027
C         -2.37088        2.53333        0.02689
N         -2.30538        3.66453        0.16370
C         -1.35250        0.16148        0.00685
C         -0.00960        0.67260        0.26877
C          1.30837        0.08399        0.04961
H          4.58136        0.56602       -0.37108
H          3.89516       -1.89364       -0.68582
H         -0.80264       -4.14599        0.65125
H          0.79891       -4.10719        0.58992
H         -4.58776        0.84962       -0.57605
H          0.02037        1.73609        0.46916
