31
Coordinates from ORCA-job ./opt_b97-3c_parallel
N          3.79879       -2.39727       -0.52236
C          3.39651       -1.32799       -0.52809
C          2.93520        0.02441       -0.52368
C          3.58696        1.13028       -0.97810
C          2.84683        2.20683       -0.74943
C          1.68736        1.84276       -0.13791
N          0.67907        2.51378        0.30920
C         -0.52365        2.75760        0.70469
N         -0.39791        3.82238        0.94857
C         -1.69333        1.92657        0.57256
C         -1.67941        0.52171        0.19537
C         -2.85013       -0.10405       -0.15948
C         -4.17502        0.43534       -0.27642
N         -5.00720        1.15650       -0.58249
C         -2.52559       -1.47883       -0.42645
N         -3.24259       -2.26588       -0.73205
C         -1.17462       -1.66848       -0.20843
C         -0.41820       -2.88308       -0.30184
N          0.16451       -3.86468       -0.35213
C         -0.58667       -0.42195        0.21049
C          0.70196       -0.28820        0.65688
C          0.91593       -0.55812        1.71108
N          1.25184       -1.30431        2.51055
C          1.68355        0.43366        0.03977
H          4.56933        1.13276       -1.44523
H          3.12839        3.22704       -1.00029
H         -1.28586        4.03082        1.40020
H          0.20444        4.63108        1.08787
H         -2.65187        2.42088        0.69703
H         -4.23329       -2.04320       -0.81941
H         -3.18227       -3.25772       -0.50739
