23
Coordinates from ORCA-job ./opt_b97-3c_parallel
N         -3.61590        1.55524       -0.12629
C         -3.66815        0.42950        0.07197
C         -2.52156       -0.42587        0.13395
C         -2.58828       -1.84488        0.25043
C         -1.42183       -2.55546        0.30744
C         -0.56816       -1.48917        0.19394
C          0.87084       -1.68236        0.17101
C          1.84420       -0.72033        0.02018
N          2.98374       -1.38321       -0.10781
C          3.96315       -0.48892       -0.22143
N          3.48294        0.78687       -0.17461
C          2.12509        0.62419       -0.02854
N          1.62183        1.91546       -0.03294
C          0.23835        1.96459        0.01866
N         -0.41279        2.85749        0.03310
N         -0.57737        0.95919        0.02608
C         -1.17831       -0.18557        0.10509
H         -3.55183       -2.34468        0.29726
H         -1.28883       -3.45464       -0.29124
H          1.15376       -2.73031        0.27755
H          4.99686       -0.85477       -0.33685
H         -0.15399        3.80159        0.32377
H         -1.40995        2.90862       -0.18878
