29
Coordinates from ORCA-job ./opt_b97-3c_parallel
N          4.96185       -0.65539        0.86689
C          4.02267       -0.06214        0.59926
C          2.82107        0.63821        0.26371
C          2.86488        2.06816        0.17431
C          1.71794        2.74180       -0.15843
C          0.92433        1.63923       -0.31428
N         -0.18834        1.73652       -0.95350
C         -1.26058        1.97884       -0.28634
N         -1.44221        3.06080       -0.43880
C         -2.05863        0.95877        0.33233
C         -3.32820        1.33421        0.88867
N         -4.35263        1.58766        1.32610
C         -1.69040       -0.44778        0.18704
C         -2.73410       -1.40491        0.38572
C         -2.16973       -2.68642        0.11070
N         -2.35531       -3.77348        0.05298
N         -0.83391       -2.52221       -0.20683
C         -0.56701       -1.19935       -0.14443
C          0.87835       -0.91185       -0.22243
C          1.82769       -1.98721       -0.36663
N          2.13629       -2.66963       -1.22962
C          1.50564        0.38669       -0.02933
H          3.80207        2.58452        0.36233
H          1.38757        3.59186        0.43516
H         -2.33358        3.41342       -0.78426
H         -0.75448        3.79238       -0.61146
H         -3.77191       -1.22189        0.64722
H         -1.78463       -4.52140       -0.34208
H         -3.16252       -4.23094        0.47708
