28
Coordinates from ORCA-job ./opt_b97-3c_parallel
N          4.48837        1.96754        1.75112
C          3.94921        1.07480        1.28396
C          3.25602       -0.01644        0.67238
C          3.78578       -1.21039        0.28566
C          2.87862       -1.91499       -0.38051
C          1.69894       -1.23445       -0.41066
C          0.45823       -1.87554       -0.80876
C         -0.89088       -1.52520       -0.40335
N         -1.83950       -2.53310       -0.39029
C         -2.97382       -2.10601        0.15698
C         -2.78729       -0.79711        0.49758
C         -3.86968       -0.02030        1.01771
N         -4.75667        0.56989        1.43054
C         -1.48086       -0.35202        0.14913
C         -1.00098        1.00610        0.15384
C         -1.71187        2.15560        0.63193
N         -2.25076        3.09513        0.99677
C          0.09190        1.19888       -0.74713
N          0.28256        1.66031       -1.73181
C          1.12635        1.17656        0.23883
C          1.90110        0.04135        0.21454
H          4.81163       -1.52430        0.46378
H          3.04782       -2.89829       -0.81360
H          0.57166       -2.88529       -1.19293
H         -3.85196       -2.76100        0.26143
H          1.22580        1.95864       -1.97339
H         -0.31083        2.48700       -1.78127
H          1.45812        2.08410        0.73646
