30
Coordinates from ORCA-job ./opt_b97-3c_parallel
N         -3.57423       -2.95909       -1.64062
C         -2.78941       -2.32175       -1.10879
C         -1.80293       -1.55519       -0.41018
C         -0.73885       -2.26018        0.23995
C         -0.00289       -1.70584        1.23347
C          1.04045       -1.45133        0.40687
N          2.28114       -1.52203        0.02090
C          3.42877       -1.05734       -0.37283
N          4.18909       -1.86003       -0.45690
C          2.62872        0.06130       -0.32639
C          3.63038        1.00344       -0.74833
N          4.45615        1.72146       -1.07538
C          1.32969       -0.15578        0.07077
C          0.40789        0.96221        0.25877
C          0.97549        2.28010        0.35896
N          1.44123        2.57280        1.36165
C         -1.05757        0.84558        0.21334
C         -1.84877        2.03526        0.28734
C         -3.13694        1.77886       -0.03277
N         -4.17107        2.62672       -0.11815
C         -3.19495        0.48343       -0.31000
C         -1.98245       -0.13877       -0.13988
H         -0.69926       -3.33521        0.07418
H          0.14414       -2.22950        2.17553
H          4.65269       -2.76851       -0.46944
H          4.91081       -1.17476       -0.68343
H         -1.47191        3.03655        0.47109
H         -5.12917        2.28523       -0.06014
H         -4.13135        3.54126        0.32898
H         -4.11099       -0.01988       -0.61478
