26
Coordinates from ORCA-job ./opt_b97-3c_parallel
N          3.31416       -3.01221       -0.00108
C          2.41479       -2.30758        0.00253
C          1.31592       -1.37777        0.00488
C          0.17463       -2.17179        0.00664
C         -1.23528       -1.88871        0.00735
C         -1.97985       -0.72906        0.00185
N         -3.34974       -0.89118       -0.00208
C         -3.95726        0.35496       -0.00932
N         -5.04083        0.55858       -0.01531
N         -2.95701        1.31465       -0.00864
C         -1.74043        0.66993       -0.00224
C         -0.57000        1.49924        0.00076
C          0.76584        1.16463        0.00540
C          1.65593        2.28188        0.00819
C          2.98425        1.75868        0.01144
N          4.02655        2.12725        0.01473
N          2.90941        0.42006        0.00984
C          1.56469        0.04863        0.00650
H          0.31543       -3.25514        0.00818
H         -1.82286       -2.80509        0.00997
H         -5.54981        1.44257       -0.03480
H         -5.75198       -0.17291       -0.02715
H         -0.81128        2.55979       -0.00123
H          1.38468        3.33398        0.00791
H          4.34175        3.09784        0.05402
H          4.88036        1.56744       -0.01318
