25
Coordinates from ORCA-job ./opt_b97-3c_parallel
N          5.05401        1.03672        0.49314
C          4.05750        0.51510        0.28902
C          2.80618       -0.16550        0.07520
C          2.87775       -1.57830       -0.07752
C          1.69993       -2.23030       -0.27358
C          0.82439       -1.18108       -0.17879
C         -0.59779       -1.46772       -0.14752
C         -1.78118       -0.61797       -0.06612
C         -2.98504       -1.24403        0.04114
C         -3.66475       -0.05512       -0.00569
N         -4.74256       -0.20995        0.19608
C         -3.25163        1.23454       -0.21950
C         -1.96186        0.80399       -0.20816
N         -1.05743        1.77638       -0.36850
C          0.22462        1.59136       -0.12191
N          1.44585        1.31928        0.14424
C          1.44356        0.03973       -0.01893
H          3.83525       -2.08880       -0.03045
H          1.50127       -3.18018        0.21689
H         -0.82546       -2.52996       -0.16068
H         -3.24135       -2.07134       -0.61929
H         -5.26823       -1.08145        0.16511
H         -5.38604        0.51024        0.51909
H         -3.56836        2.04477        0.43641
H          0.42188        2.62972       -0.42882
