29
Coordinates from ORCA-job ./opt_b97-3c_parallel
N          1.98671        3.99987       -0.50238
C          1.52519        2.99756       -0.20813
C          0.91954        1.74431        0.12541
C         -0.26893        2.20423        0.62643
C         -1.47575        2.21906       -0.01690
C         -2.41348        1.11734       -0.04158
C         -3.68758        1.22076       -0.51550
C         -4.16341       -0.03430       -0.21650
N         -5.16408       -0.49222       -0.34219
N         -3.21885       -0.89281        0.33106
C         -2.05695       -0.17294        0.46154
N         -0.88821       -0.52140        0.90273
C          0.34958       -0.62018        0.51701
C          0.99744       -1.83240        0.38225
C          0.42881       -3.12949        0.62838
N         -0.54121       -3.51760        0.16212
C          2.33914       -1.53340       -0.06835
N          3.09655       -2.32077       -0.24995
C          2.41209       -0.16203       -0.20206
C          3.60006        0.51670       -0.63160
N          4.54152        1.07933       -0.94749
C          1.20589        0.38840        0.15066
H         -0.25705        2.59461        1.64448
H         -1.82858        3.15633       -0.43895
H         -4.28337        2.11191       -0.32335
H         -6.03121        0.04797       -0.37446
H         -5.45776       -1.46787       -0.42155
H          4.03639       -1.92502       -0.29761
H          3.21525       -3.33229       -0.30507
