26
Coordinates from ORCA-job ./opt_b97-3c_parallel
N         -2.70173        3.56758        0.00642
C         -2.72770        2.42502        0.00533
C         -2.74108        0.98279        0.00362
C         -3.91619        0.24059        0.00308
C         -3.62921       -1.11688        0.00098
C         -2.24398       -1.27096        0.00007
C         -1.66338       -2.54401       -0.00277
C         -0.27595       -2.88707       -0.00573
N          0.64194       -2.29207        0.00127
C          1.53262       -1.29647       -0.00081
N          2.86271       -1.46284       -0.00113
C          3.07586       -0.38527       -0.00034
N          4.40511       -0.05826       -0.00104
C          2.03547        0.60390        0.00092
C          2.34818        2.00331        0.00144
N          2.39795        3.14484        0.00765
C          1.03737        0.11652        0.00092
C         -0.30494        0.54977        0.00206
C         -1.64499        0.10274        0.00193
H         -4.91853        0.66278        0.00398
H         -4.37083       -1.91229       -0.00015
H         -2.26933       -3.44727       -0.00397
H          0.17850       -3.87032       -0.00598
H          4.69601        0.91338        0.00419
H          5.11427       -0.78286        0.00244
H         -0.29379        1.63536        0.00358
