24
Coordinates from ORCA-job ./opt_b97-3c_parallel
N          3.47909       -2.92088       -0.04372
C          2.53528       -2.27561       -0.04073
C          1.32975       -1.47774       -0.03921
C          0.14668       -2.23933       -0.11502
C         -1.21798       -1.94016        0.01954
C         -1.88621       -0.71076        0.14039
N         -3.20523       -0.62632        0.35752
C         -3.09329        0.47492        0.19934
N         -4.43353        0.74964        0.19984
N         -2.52004        1.41341       -0.00818
C         -1.42157        0.65199       -0.11385
N         -0.44744        0.80567       -1.02074
C          0.50404        0.99891       -0.09732
N          1.19772        2.13469        0.07165
C          2.11274        1.51094        0.22099
N          3.24893        2.27247        0.22730
N          2.65250        0.53894        0.31411
C          1.47836       -0.07832        0.09636
H          0.31322       -3.31168       -0.21141
H         -1.85742       -2.81914        0.06517
H         -4.75548        1.66618       -0.08927
H         -5.10296       -0.01216        0.19718
H          3.19281        3.25576       -0.01221
H          4.15728        1.82318        0.18001
