26
Coordinates from ORCA-job ./opt_b97-3c_parallel
N          3.50489       -2.97375       -0.01470
C          2.55409       -2.34246       -0.00350
C          1.38455       -1.50711        0.00690
C          0.14151       -2.22752        0.01057
C         -1.15138       -1.82527        0.01324
C         -2.02840       -0.79332        0.01402
C         -3.38240       -0.95726        0.00382
C         -3.99069        0.27616        0.00039
N         -5.02720        0.65946       -0.02595
N         -2.98564        1.17665        0.01272
C         -1.78740        0.58811        0.02154
C         -0.59216        1.39050        0.02485
C          0.76450        1.08166        0.01747
N          1.55639        2.16525        0.01354
C          2.88025        1.75807        0.00001
N          3.79959        2.36707       -0.01214
N          2.86198        0.38007       -0.00089
C          1.55107       -0.05594        0.00918
H          0.28293       -3.30777        0.00619
H         -1.73578       -2.74587        0.00964
H         -3.90508       -1.91302        0.01563
H         -5.38862        1.61393       -0.04713
H         -5.84936        0.05902       -0.10903
H         -0.83592        2.45183        0.02848
H          3.86141        3.38417       -0.06008
H          4.76120        2.02790       -0.06067
