26
Coordinates from ORCA-job ./opt_b97-3c_parallel
N         -3.82656       -1.09705        0.41191
C         -2.74703       -1.43001        0.23760
C         -1.40963       -1.88658        0.02206
C         -1.06885       -3.16784       -0.28009
C          0.24714       -3.25175       -0.35475
C          0.77148       -2.02032       -0.11263
C          2.18868       -1.77131        0.00709
C          2.90188       -0.51787        0.21575
N          3.98650       -0.33592        0.31338
N          2.61782        0.84990        0.09455
C          1.42029        1.54622       -0.05709
C          1.36117        2.88406       -0.29829
C          0.09712        3.26655       -0.27925
C         -0.68107        2.18573       -0.00796
C         -2.10336        2.22489        0.13286
N         -3.23900        2.29331        0.23224
C          0.11970        1.00517        0.18326
N         -0.13189       -0.01553        0.47805
C         -0.24218       -1.05754        0.17295
H         -1.76444       -3.99437       -0.41138
H          0.81051       -4.15903       -0.56297
H          2.81382       -2.65786       -0.05639
H          4.44353       -1.20375        0.59145
H          4.71576        0.37674        0.31705
H          2.21342        3.53806       -0.46874
H         -0.25967        4.28431       -0.42569
