29
Coordinates from ORCA-job ./opt_b97-3c_parallel
N         -2.97547       -3.65456        1.03382
C         -2.14880       -2.93285        0.71412
C         -1.09283       -2.03689        0.28791
C          0.01225       -2.70617       -0.25192
C          1.30856       -2.31419       -0.58928
C          2.04441       -1.15932       -0.28342
C          3.11644       -0.92799       -0.41609
C          3.69664        0.13584        0.34391
N          5.01552        0.45036        0.19042
N          2.92890        0.58882        0.98954
C          1.78649        0.10191        0.47319
C          0.64354        0.90720        0.32970
C          0.70528        2.29430        0.74689
N          0.74443        3.39243        1.06081
C         -0.52646        0.45328       -0.29563
C         -1.47360        0.95660       -0.60273
C         -1.45840        1.90921       -1.67987
N         -1.59809        3.00096       -1.98733
C         -2.67891        0.59158        0.08680
N         -3.90669        1.11216       -0.21590
N         -2.47876       -0.16816        0.85071
C         -1.33516       -0.64317        0.32479
H         -0.14127       -3.77316       -0.41377
H          1.88534       -3.10699       -1.06285
H          3.71735       -1.50677       -1.11251
H          5.38121        1.30090        0.60438
H          5.56395       -0.00207       -0.53271
H         -4.71539        0.84925        0.33703
H         -3.97922        1.92929       -0.81305
