28
Coordinates from ORCA-job ./opt_b97-3c_parallel
N          4.66019       -1.37381       -0.65630
C          3.88714       -0.56295       -0.43430
C          2.88884        0.43778       -0.18442
C          3.19105        1.76214       -0.12163
C          2.08331        2.44206        0.11135
C          1.04534        1.56734        0.18859
C         -0.31981        1.98942        0.44305
C         -1.49638        1.13921        0.45533
N         -2.68599        1.61706        0.62718
C         -3.50299        1.36450       -0.34360
N         -4.55013        1.71276       -0.32174
C         -2.81934        0.18660       -0.39470
C         -1.47338       -0.24497        0.07443
C         -1.00135       -1.60715        0.10778
C         -1.86976       -2.73851        0.22562
N         -2.60247       -3.61036        0.31092
C          0.43294       -1.70979        0.09358
N          1.09717       -2.59105        0.15111
N          1.12422       -0.84904        0.02382
C          1.47628        0.20273        0.02668
H          4.18483        2.19095       -0.23362
H          2.01859        3.52253        0.21848
H         -0.47712        3.04984        0.61883
H         -5.38940        1.18197       -0.55638
H         -4.86808        2.65610       -0.09925
H         -3.29328       -0.68776       -0.83889
H          2.09526       -2.77363        0.24571
H          0.61417       -3.37827        0.58039
