22
Coordinates from ORCA-job ./opt_b97-3c_parallel
N          3.76799       -2.32518        0.00732
C          2.77304       -1.76310        0.00587
C          1.49878       -1.10232        0.00406
C          0.36977       -1.98375        0.00473
C         -0.96072       -1.74559        0.00341
C         -1.98611       -0.86268        0.00096
C         -3.35963       -1.23114        0.00034
C         -4.10271       -0.01127       -0.00230
N         -3.22183        1.05719       -0.00319
C         -2.00312        0.49874       -0.00119
C         -0.94622        1.47565       -0.00167
C          0.43434        1.36394       -0.00023
N          1.08480        2.57923       -0.00125
C          2.44785        2.36763        0.00029
N          2.67029        1.00614        0.00220
C          1.45466        0.35114        0.00200
H          0.65244       -3.03419        0.00673
H         -1.41778       -2.73373        0.00466
H         -3.76887       -2.23652        0.00159
H         -5.19240        0.13765       -0.00351
H         -1.31487        2.50003       -0.00352
H          3.29549        3.07049        0.00028
