27
Coordinates from ORCA-job ./opt_b97-3c_parallel
N          3.11674       -3.06645        0.25715
C          2.34227       -2.25019        0.06058
C          1.32770       -1.26608       -0.18868
C          0.33933       -1.76312       -0.96801
C         -0.58791       -2.18195       -0.07496
C         -1.64625       -1.34642        0.16419
N         -2.84040       -1.87076        0.59463
C         -3.79297       -0.87401        0.44708
N         -4.87375       -0.72268        0.60126
N         -3.19435        0.26618       -0.06808
C         -1.84551        0.01063       -0.22942
C         -0.93890        1.10330       -0.59790
C         -1.57184        2.32511       -1.00957
N         -2.11174        3.28047       -1.32538
C          0.48501        1.18489       -0.25030
C          1.14723        2.37354       -0.08710
C          2.36166        2.16803        0.40651
C          2.59013        0.83469        0.53406
C          3.86269        0.28450        0.88684
N          4.89251       -0.12320        1.16661
C          1.41303        0.13881        0.09646
H          0.55562       -2.33767       -1.86847
H         -0.62219       -3.22707        0.22330
H         -5.48072       -1.52835        0.74968
H         -5.48872        0.08516        0.50585
H          0.74730        3.36343       -0.29642
H          3.08342        2.95029        0.63421
