26
Coordinates from ORCA-job ./opt_b97-3c_parallel
N         -4.53068        2.05125        1.37405
C         -3.55615        1.60991        0.97160
C         -2.34248        1.08622        0.41933
C         -1.34648        2.02360        0.00377
C         -0.44665        1.72381       -0.96166
C          0.73555        1.45053       -0.37112
N          1.81028        2.32312       -0.23444
C          2.82195        1.55847        0.18972
N          3.68306        2.24664        0.28590
C          2.52320        0.23223        0.33851
C          3.46275       -0.76510        0.75818
N          4.25122       -1.52775        1.07541
C          1.12317        0.12766        0.00172
C          0.32755       -1.01930       -0.11438
C          1.05468       -2.25881       -0.18759
N          1.59209       -2.62328       -1.12991
C         -1.07314       -1.17583       -0.19819
N         -1.61300       -2.43974       -0.36279
C         -2.98516       -2.39325       -0.20726
N         -3.34410       -1.09563        0.09508
C         -2.21016       -0.31890        0.06725
H         -1.52720        3.06381        0.25604
H         -0.49277        2.20609       -1.93570
H          4.54519        1.70739        0.38963
H          3.97425        3.22403        0.23866
H         -3.60327       -3.30100       -0.28703
