24
Coordinates from ORCA-job ./opt_b97-3c_parallel
N         -3.93685       -1.98370        0.61897
C         -3.36108       -1.02088        0.40408
C         -2.58533        0.15183        0.14461
C         -3.04738        1.39280       -0.15748
C         -2.02328        2.19801       -0.39604
C         -0.84669        1.52616       -0.22759
C          0.38725        2.26475       -0.17414
C          1.71024        1.86057        0.22994
N          2.56655        2.54594        0.38370
N          2.41329        0.66438        0.19855
C          2.06777       -0.65953       -0.03454
C          3.13915       -1.50347       -0.10222
C          2.54772       -2.74407       -0.11252
N          1.21465       -2.64305        0.00424
C          0.84389       -1.36935        0.05172
N         -0.47711       -1.03417        0.23982
C         -1.15082        0.16513        0.10948
H         -4.09749        1.67460       -0.21707
H         -2.11808        3.24605       -0.67712
H          0.26284        3.33769       -0.30651
H          3.58430        2.63586        0.43298
H          2.22384        3.48820        0.58532
H          4.00021       -1.29150       -0.73331
H          2.90101       -3.78583       -0.17400
