29
Coordinates from ORCA-job ./opt_b97-3c_parallel
N          5.29413        0.91017        0.26459
C          4.40471        0.19778        0.18507
C          3.26294       -0.66130        0.08103
C          3.36303       -2.00894       -0.04073
C          2.14960       -2.52382       -0.14823
C          1.20992       -1.53489       -0.09019
C         -0.17072       -1.89939       -0.03436
C         -1.36263       -1.11775        0.08090
N         -2.53800       -1.65451        0.15243
C         -3.68718       -1.13722       -0.13917
N         -4.64688       -1.67329       -0.03658
C         -3.17192        0.10210        0.09597
C         -1.80447        0.17841        0.01168
C         -1.08287        1.43154       -0.16428
C         -2.02095        2.51593       -0.37685
N         -2.89801        3.24980       -0.38609
C          0.25955        1.80338       -0.06801
N          0.60799        2.86107       -0.10158
C          1.53329        1.12318        0.12059
C          1.87421       -0.27531        0.04906
H          4.29268       -2.57455       -0.05671
H          1.94143       -3.58584       -0.26362
H         -0.34816       -2.97162       -0.04710
H         -4.88288       -2.66356        0.02636
H         -5.53564       -1.17233       -0.04210
H         -3.72651        0.79512        0.72826
H          1.53299        3.27323       -0.21900
H         -0.03446        3.64424        0.01214
H          2.42617        1.74492        0.23836
