25
Coordinates from ORCA-job ./opt_b97-3c_parallel
N          3.31959       -3.19144       -0.01539
C          2.42312       -2.47386       -0.02503
C          1.30244       -1.56265       -0.02484
C          0.05993       -2.24078       -0.00971
C         -1.31367       -1.93552       -0.00322
C         -2.05912       -0.74562       -0.05633
N         -3.39892       -0.74410       -0.00055
C         -3.34152        0.37379        0.00094
N         -4.68134        0.65448        0.01406
N         -2.79871        1.35348       -0.01767
C         -1.66725        0.65163       -0.15586
N         -0.45114        0.99044        0.26254
C          0.84740        1.06797       -0.01335
N          1.54629        2.20925       -0.03616
C          2.59082        1.87333       -0.02060
N          3.77157        2.55739       -0.00314
C          2.56926        0.44463       -0.02494
C          1.65470       -0.18825       -0.02774
H          0.17903       -3.32376        0.00936
H         -1.93167       -2.82974        0.04227
H         -5.00394        1.61517        0.00730
H         -5.36718       -0.09218        0.00794
H          3.77333        3.57151        0.00553
H          4.65887        2.06651        0.01026
H          3.51379       -0.09304       -0.00648
