27
Coordinates from ORCA-job ./opt_b97-3c_parallel
N          4.78211       -1.69100        0.08493
C          3.88760       -0.98143        0.03312
C          2.73917       -0.12704       -0.02040
C          2.86962        1.28884       -0.08611
N          3.70508        2.01149       -0.12123
C          1.67550        1.94959       -0.13721
C          0.75537        0.93169       -0.08676
C         -0.64439        1.33064       -0.07952
C         -1.81400        0.48946       -0.03178
N         -3.05567        1.09839       -0.00693
C         -4.07088        0.15367        0.02720
N         -5.05332        0.65690        0.05118
C         -3.36650       -1.01417        0.00882
C         -2.05106       -0.84397       -0.02212
N         -1.55637       -1.82513       -0.04599
C         -0.46611       -1.90975       -0.00837
C          0.92180       -1.61712        0.02216
C          1.38207       -0.31346       -0.02809
H          3.97937        2.99230       -0.12646
H          4.56339        1.46798       -0.04118
H          1.50765        2.88291        0.40218
H         -0.83405        2.40024       -0.10533
H         -5.31810        1.64141        0.02791
H         -5.92545        0.13089        0.10448
H         -3.87023       -1.98445        0.01476
H         -0.44293       -3.01072        0.03385
H          1.60063       -2.46461        0.07184
