29
Coordinates from ORCA-job ./opt_b97-3c_parallel
N          2.39867        3.87461        0.56084
C          2.52385        2.74355        0.46944
C          2.63004        1.32383        0.33035
C          3.76249        0.57058        0.34367
C          3.45853       -0.69683        0.09110
C          2.11523       -0.82151       -0.10466
C          1.47319       -1.83365       -0.73053
C          0.77341       -2.67140        0.06921
N          1.19172       -3.67219        0.27358
C         -0.60028       -2.47506        0.41868
C         -1.30768       -1.25902        0.09351
N         -2.59567       -1.11023        0.13335
C         -3.27787       -0.03442       -0.12547
N         -4.34171       -0.33081       -0.05829
C         -2.19854        0.80965       -0.28613
C         -2.63343        2.16079       -0.49199
N         -3.47859        2.85987       -0.16855
C         -0.98739        0.06415       -0.15062
C          0.21576        0.88099       -0.10477
C          1.51772        0.45398        0.08035
H          4.76467        0.94971        0.53529
H          4.17697       -1.51237        0.04759
H          1.75519       -2.12417       -1.74132
H          0.69563       -4.56240        0.25190
H          2.18474       -3.90115        0.31472
H         -1.17154       -3.31537        0.80759
H         -4.68170        0.63173       -0.01583
H         -5.17088       -0.92434       -0.05917
H          0.05553        1.95425       -0.14078
