25
Coordinates from ORCA-job ./opt_b97-3c_parallel
N         -5.34991        0.29943        0.51050
C         -4.27574       -0.04705        0.33159
C         -2.94052       -0.48269        0.06134
C         -2.69064       -1.81430       -0.37594
C         -1.39096       -2.15778       -0.60605
C         -0.78134       -0.96605       -0.31406
C          0.66664       -0.98405       -0.15270
C          1.55403        0.06661        0.00211
C          2.92273       -0.17562        0.32920
C          3.57997       -1.42497        0.57014
N          4.10261       -2.42947        0.72176
C          3.54630        1.11367        0.33322
N          2.62374        2.08375       -0.03415
C          1.48430        1.40774       -0.22313
C          0.38158        1.90752       -0.82513
C         -0.44172        2.22355        0.19853
C         -1.53339        1.38279        0.56332
C         -1.70047        0.09107        0.08818
H         -3.51411       -2.51217       -0.49327
H         -1.00040       -3.09452       -0.21408
H          1.09712       -1.98036       -0.17779
H          4.62044        1.18051        0.56298
H          0.46584        2.55787       -1.69225
H         -0.46116        3.23802        0.58788
H         -2.33842        1.88488        1.09305
