27
Coordinates from ORCA-job ./opt_b97-3c_parallel
N          4.03068        2.81679       -0.72976
C          3.60988        1.76407       -0.58908
C          3.03351        0.47029       -0.39475
C          3.84729       -0.70050       -0.33216
C          3.22109       -1.88238       -0.04591
C          1.92712       -1.44125        0.02888
C          0.90560       -2.26898        0.62714
C         -0.42758       -2.22692        0.11140
C         -0.81131       -1.53343       -0.99001
C         -1.33161       -0.45460       -0.35627
C         -2.67103       -0.19553       -0.25305
C         -3.88654       -0.86786       -0.59586
N         -4.99484       -0.59766       -0.52357
C         -2.77235        1.13107        0.30322
N         -3.36413        2.00061        0.64597
N         -1.54831        1.65546        0.51366
C         -0.64684        0.67607        0.14174
C          0.70586        0.93628        0.09013
C          1.77575       -0.01290       -0.17702
H          4.92343       -0.61866       -0.45410
H          3.63247       -2.56541        0.69368
H          1.18572       -3.14162        1.20982
H         -1.11290       -2.97210        0.50716
H         -1.33454       -2.02603       -1.80807
H         -3.41596        3.01835        0.65336
H         -4.32589        1.66516        0.56699
H          1.00648        1.97171        0.22244
