27
Coordinates from ORCA-job ./opt_b97-3c_parallel
N          4.46603        0.40047       -1.32354
C          3.45855        0.76345       -0.92519
C          2.21751        1.26261       -0.41772
C          2.04776        2.53365        0.03998
C          0.83704        2.66837        0.56786
C          0.13663        1.50744        0.42770
C         -1.29054        1.45371        0.68988
C         -2.25661        0.56148        0.08116
C         -3.59892        1.00871       -0.02284
C         -4.27061        0.01719       -0.81509
N         -3.39152       -1.00942       -1.14769
C         -2.23924       -0.63258       -0.58258
C         -1.20943       -1.61843       -0.52531
C         -0.16638       -1.55766        0.33678
N         -0.44998       -2.26647        1.44220
C          0.82829       -0.89064       -0.29662
C          1.79347       -1.82797       -0.79181
N          2.54236       -2.60341       -1.17230
C          1.00445        0.53227       -0.17394
H          2.80245        3.31637        0.00367
H          0.45117        3.58421        1.01005
H         -1.70909        2.35839        1.12128
H         -4.01751        1.93651        0.35414
H         -5.33160        0.22869       -1.01477
H         -1.36588       -2.54146       -1.07813
H         -1.28099       -2.85506        1.46537
H          0.29352       -2.76143        1.93121
