26
Coordinates from ORCA-job ./opt_b97-3c_parallel
N         -4.52327       -2.18192        0.47013
C         -3.98561       -1.20920        0.20721
C         -3.26578       -0.01530       -0.10425
C         -3.72450        1.14278       -0.65498
C         -2.72876        2.01332       -0.76339
C         -1.58037        1.45894       -0.28768
N         -0.39463        1.98130       -0.15526
C          0.84022        1.86624        0.24332
N          0.56028        2.73562        0.87625
C          1.80161        0.89387        0.04470
C          2.76862        1.38933       -0.20455
N          3.80575        1.54407        0.25150
C          1.48252       -0.40962        0.16072
C          2.39873       -1.40638       -0.03773
C          3.56689       -1.74983       -0.78671
N          4.49987       -1.98841       -1.40029
C          1.77478       -2.60518        0.13324
N          0.56174       -2.17474        0.40000
C          0.22471       -0.84186        0.47339
N         -1.04933       -0.73289        0.68163
C         -1.86719        0.12934        0.15819
H         -4.75325        1.32790       -0.95751
H         -2.81851        3.01958       -1.16764
H          1.52764        2.88287        1.16270
H          0.17937        3.66589        0.70032
H          1.99294       -3.68421        0.08595
