25
Coordinates from ORCA-job ./opt_b97-3c_parallel
N          4.10269        2.21667        0.35585
C          3.61152        1.22077        0.08514
C          2.62363        0.19906       -0.06117
C          3.01779       -1.02433       -0.68061
C          2.10819       -2.04219       -0.76780
C          1.03843       -1.37767       -0.22829
C         -0.21191       -2.07298        0.01577
C         -1.49197       -1.46464        0.31959
N         -2.47091       -2.27568        0.61085
C         -3.42662       -1.43273        0.48665
C         -3.14251       -0.20256        0.13674
C         -1.68232       -0.07096       -0.06105
C         -1.33084        1.28581       -0.40554
C         -2.03484        2.20020       -1.25147
N         -2.62074        2.93780       -1.89858
C         -0.11092        1.68242        0.23297
C          0.59288        0.81388        1.01054
C          1.32127       -0.05141        0.25095
H          4.03444       -1.15488       -1.03973
H          2.36792       -3.04467       -0.43521
H         -0.19361       -3.15573       -0.07498
H         -4.35377       -1.97600        0.72358
H         -3.93993        0.52939        0.03008
H          0.25295        2.69002        0.05467
H          0.91288        1.09063        2.01229
