25
Coordinates from ORCA-job ./opt_b97-3c_parallel
N          4.51469       -1.79286       -0.13172
C          3.69410       -0.99790       -0.11090
C          2.63938       -0.03402       -0.07931
C          2.90373        1.37586       -0.04675
C          1.83537        2.24293       -0.01590
C          0.84453        1.30172       -0.03397
N         -0.39443        1.66048       -0.04993
C         -1.67907        1.78910       -0.02129
N         -1.78645        2.88500       -0.03687
C         -2.67434        0.74650        0.03847
C         -2.36501       -0.67086        0.05256
N         -3.39037       -1.47233        0.12444
C         -2.70784       -2.55342        0.10368
C         -1.40155       -2.48784        0.02555
C         -0.96119       -1.07104       -0.02556
C          0.47609       -1.24362       -0.08992
C          1.28215       -0.04962       -0.06678
H          3.93262        1.72368       -0.04522
H          1.80975        3.06670        0.69350
H         -1.38647        3.79605       -0.25025
H         -2.78878        2.95381       -0.19964
H         -3.71830        1.04513        0.07884
H         -3.40102       -3.40608        0.16064
H         -0.83565       -3.41754        0.00957
H          0.97889       -2.20652       -0.13258
