26
Coordinates from ORCA-job ./opt_b97-3c_parallel
N          2.97419       -3.26341       -0.41922
C          2.74382       -2.15712       -0.25077
C          2.42879       -0.77622       -0.07451
C          3.41478        0.18288        0.31760
C          3.03190        1.49354        0.43620
C          1.72304        1.28659        0.09830
N          0.95952        2.40866        0.03473
C         -0.41350        2.27684       -0.09475
N         -0.62256        3.35450       -0.22301
N         -1.60883        1.78309       -0.18948
C         -1.86399        0.51088       -0.16041
C         -3.16311        0.01365        0.15549
C         -3.17991       -1.34221        0.11390
N         -4.20464       -2.18316        0.31583
C         -1.94802       -1.71660       -0.20373
C         -1.13032       -0.63565       -0.36443
N          0.11909       -0.43503       -0.62395
C          1.28819       -0.04813       -0.22874
H          4.43394       -0.14538        0.49990
H          3.29966        2.06323        1.32348
H         -1.51381        3.70811       -0.56992
H          0.06030        4.08005       -0.43963
H         -4.00457        0.65739        0.39461
H         -4.04423       -3.18302        0.43241
H         -4.99302       -1.91677        0.90413
H         -1.62961       -2.74919       -0.33468
