24
Coordinates from ORCA-job ./opt_b97-3c_parallel
N         -5.24931        0.91383        0.07588
C         -4.25925        0.34848        0.03060
C         -2.99083       -0.31318       -0.02202
C         -2.94468       -1.72489       -0.08509
C         -1.69320       -2.24410       -0.15390
C         -0.90227       -1.12052       -0.07900
C          0.51561       -1.37303       -0.06551
C          1.63724       -0.57534       -0.01918
N          2.85130       -1.14529       -0.00994
C          3.81552       -0.15400        0.01359
N          4.90469       -0.34233        0.02033
N          3.18390        1.07347        0.01853
C          1.87095        0.83318        0.00179
N          1.13938        1.95312       -0.00190
C         -0.22045        2.17592        0.00756
C         -1.41838        1.39561        0.01792
C         -1.66089        0.03793       -0.02689
H         -3.85419       -2.32050       -0.08577
H         -1.44476       -3.17017        0.35971
H          0.72694       -2.44044       -0.09755
H          5.67608        0.32751        0.00914
H          5.34646       -1.26327       -0.00046
H         -0.46739        3.24970        0.02468
H         -2.28238        2.05409        0.04682
