26
Coordinates from ORCA-job ./opt_b97-3c_parallel
N          2.94188        3.54113       -0.17976
C          2.73445        2.42474       -0.05790
C          2.44020        1.03203        0.06393
C          3.48574        0.06562        0.21654
C          3.14161       -1.26165        0.26074
C          1.78786       -1.09208        0.17390
N          1.19856       -2.18026       -0.36333
C         -0.09366       -2.42477        0.03565
N         -0.08983       -3.35349       -0.56533
N         -0.98301       -2.04209        0.88840
C         -1.56633       -0.98859        0.42645
C         -3.00134       -0.92058        0.40521
C         -3.60196        0.22407       -0.06243
C         -2.45684        0.91749       -0.34535
C         -2.80645        2.21385       -0.84253
N         -2.49529        3.18124       -0.32033
C         -1.24346        0.22438       -0.08617
C          0.03182        0.87104       -0.26904
C          1.31616        0.26256        0.03170
H          4.51843        0.40000        0.25982
H          3.57582       -1.91571        1.01442
H         -0.97923       -3.80283       -0.77881
H          0.63209       -4.02191       -0.83485
H         -3.58049       -1.76120        0.77691
H         -4.41861        0.68098        0.49554
H          0.02317        1.92174       -0.54320
