24
Coordinates from ORCA-job ./opt_b97-3c_parallel
N         -4.93714       -1.97859        0.53048
C         -4.19860       -1.13334        0.32067
C         -3.25538       -0.08488        0.09665
C         -3.66679        1.26433       -0.14371
C         -2.69560        2.21408       -0.32406
C         -1.63673        1.36140       -0.17936
N         -0.41256        1.94674       -0.23506
C          0.70907        1.13921       -0.16618
N          1.55192        2.23109       -0.02799
C          2.87912        1.87495        0.16902
C          2.82481        0.51494        0.13913
C          3.89217        0.26417        0.30295
N          4.45569       -0.44285        1.00310
C          1.58721        0.10379       -0.07942
C          1.32490       -1.23527       -0.19792
C          2.01873       -2.42295       -0.58420
N          2.60162       -3.34853       -0.91358
C          0.02760       -1.66465       -0.02344
N         -1.03563       -0.98670        0.26071
C         -1.89401       -0.03610        0.07189
H         -4.72630        1.50325       -0.16354
H         -2.74073        3.15982        0.21243
H          3.38530        2.84879        0.26770
H         -0.56789       -2.59126       -0.06121
