29
Coordinates from ORCA-job ./opt_b97-3c_parallel
N          5.54669        1.74489        0.48726
C          4.63009        1.06331        0.52650
C          3.49256        0.19730        0.53898
C          3.59347       -1.11337        0.90153
N          2.45635       -1.67649        0.51677
C          1.58022       -0.71854        0.03158
C          0.29901       -1.07845       -0.54712
C          0.14885       -2.43848       -0.97941
N          0.06911       -3.51757       -1.34847
C         -0.85097       -0.20543       -0.28003
C         -2.21744       -0.67650       -0.16920
C         -2.71967       -2.01570       -0.29686
N         -3.15305       -3.07109       -0.36763
C         -3.15306        0.21495        0.31869
N         -4.47782        0.23641        0.06464
C         -2.29385        1.24408        0.62223
C         -2.90824        2.42191        1.16697
N         -3.23743        3.47986        0.88844
C         -0.93272        1.05528        0.24098
C         -0.01650        2.16166        0.26457
C          0.93160        2.38252       -0.68372
C          1.99267        1.60915       -0.82718
C          2.23133        0.53984       -0.01977
H          4.27216       -1.90459        1.25390
H         -5.07737        0.92499        0.51577
H         -4.99778       -0.63683       -0.01119
H         -0.32806        3.04142        0.81800
H          0.80442        3.22808       -1.35582
H          2.70852        1.84194       -1.61229
