27
Coordinates from ORCA-job ./opt_b97-3c_parallel
N          5.25482       -1.62851       -0.36200
C          4.94103       -0.58925       -0.00596
C          3.67523        0.07621        0.04096
C          3.81573        1.49278        0.15508
C          2.68763        2.26330        0.21446
C          1.78388        1.23558        0.12919
N          0.51185        1.75908        0.14770
C         -0.74522        1.20322        0.06644
N         -1.70213        2.19724        0.08216
C         -2.93629        1.59584       -0.01034
N         -3.74065        2.35949       -0.01321
C         -2.75262        0.17812       -0.08230
C         -3.87787       -0.69509       -0.21830
N         -4.80863       -1.34591       -0.33107
C         -1.32742       -0.10300       -0.02780
C         -0.82176       -1.40009       -0.05882
C         -1.59402       -2.61564       -0.08749
N         -2.08615       -3.18015        0.77616
C          0.52563       -1.95911       -0.07534
C          1.78832       -1.41186       -0.05951
C          2.31854       -0.08067        0.02656
H          4.80042        1.95278        0.19130
H          2.60094        3.15565       -0.40318
H         -4.66535        1.92414       -0.05831
H         -3.92184        3.36522       -0.00671
H          0.61610       -3.04804       -0.11831
H          2.57877       -2.15636       -0.10355
