28
Coordinates from ORCA-job ./opt_b97-3c_parallel
N          3.30041        2.82076        0.44101
C          2.84030        1.79326        0.24579
C          2.26697        0.48850        0.04338
C          3.21787       -0.56550        0.02613
N          4.31635       -0.68728        0.10218
C          2.66985       -1.78888       -0.15970
C          1.32180       -1.53054       -0.15370
C          0.54213       -2.74006       -0.25335
C         -0.77812       -3.08624       -0.12139
C         -1.97482       -2.35698        0.12501
C         -2.24698       -1.01520        0.11296
N         -3.58289       -0.70430        0.24656
C         -3.75128        0.65846        0.11655
N         -4.61645        1.33888        0.15346
N         -2.49985        1.19764       -0.10738
C         -1.53901        0.19623       -0.11207
C         -0.14299        0.58895       -0.23841
C          0.02020        1.99418       -0.52820
N          0.08137        3.10938       -0.77336
C          1.04075       -0.16327       -0.11903
H          4.64213        0.27592        0.17402
H          5.14036       -1.27913        0.19543
H          3.07913       -2.69001        0.30340
H          1.17483       -3.61743       -0.37053
H         -0.95247       -4.15786       -0.15470
H         -2.83236       -3.01256        0.26102
H         -4.65576        2.35741        0.12046
H         -5.56919        1.01961        0.32545
