29
Coordinates from ORCA-job ./opt_b97-3c_parallel
N          4.90763       -0.14348       -1.58273
C          3.94699       -0.58140       -1.14661
C          2.74066       -1.15399       -0.63659
C          2.49477       -2.48627       -0.79750
N          1.27811       -2.61653       -0.27945
C          0.67262       -1.47510        0.22815
C         -0.51882       -1.41066        0.92051
C         -0.69866       -2.15290        1.72802
N         -1.17094       -3.03856        2.27495
C         -1.61187       -0.76337        0.48885
N         -2.92144       -0.67150        0.60836
C         -3.87117       -0.02496       -0.14710
N         -4.93970       -0.17407        0.07625
N         -2.88780        0.55963       -0.91626
C         -1.62744        0.23202       -0.44886
C         -0.68989        1.33517       -0.50618
C         -0.86774        2.48669       -1.34435
N         -1.05540        3.39882       -2.00515
C          0.28476        1.51456        0.43991
N          0.00347        2.25932        1.52472
C          1.49421        0.94864        0.16947
C          2.51844        1.92909       -0.03725
N          3.33112        2.72239       -0.15855
C          1.64304       -0.46888       -0.03768
H          3.14778       -3.25251       -1.24394
H         -5.63105        0.45853       -0.32596
H         -5.45774       -0.98886        0.40568
H          0.77860        2.59792        2.09719
H         -0.62658        3.05612        1.42598
