25
Coordinates from ORCA-job ./opt_b97-3c_parallel
N         -3.07193       -3.23012       -0.01041
C         -2.90220       -2.10051       -0.00757
C         -2.63568       -0.69386       -0.00452
C         -3.60318        0.26097       -0.00281
C         -3.03393        1.45527        0.00076
C         -1.68046        1.30866        0.00107
N         -0.98477        2.49668        0.00499
C          0.35233        2.82030        0.00666
C          1.58761        2.10268        0.00487
C          1.85810        0.69605        0.00146
N          3.05367        0.19662        0.00172
C          3.43040       -1.04356       -0.00237
N          4.46481       -1.42744       -0.00242
C          2.14351       -1.49219       -0.00007
C          1.20273       -0.50842       -0.00047
C         -0.19061       -0.85466       -0.00242
C         -1.33151       -0.07906       -0.00195
H         -4.67511        0.07467       -0.00374
H         -3.57052        2.40231        0.00266
H          0.44917        3.91690        0.00971
H          2.46784        2.73853        0.00697
H          5.35612       -0.93204       -0.00076
H          4.69349       -2.42128       -0.00458
H          1.89270       -2.55160       -0.00858
H         -0.34715       -1.92835       -0.00461
