24
Coordinates from ORCA-job ./opt_b97-3c_parallel
N         -4.70977       -1.37625       -1.39220
C         -3.92191       -0.64720       -0.99819
C         -2.90025        0.01939       -0.25362
C         -3.26010        1.40549       -0.15903
C         -2.06509        2.09141        0.24032
C         -1.25967        1.34382        0.31486
N          0.05792        1.47313        0.55935
C          1.35642        1.23441        0.29327
N          2.31150        2.17211        0.22790
C          3.09329        1.46962       -0.10324
C          2.85557        0.06662       -0.25580
C          3.95725       -0.71887       -0.71662
N          4.66814       -1.40045       -1.29710
C          1.81138       -0.16895        0.00689
N          0.94673       -1.19404        0.13723
C         -0.07127       -1.58934        0.27950
N         -0.09581       -2.76190        0.97018
N         -1.05038       -1.10522        0.13679
C         -1.83412       -0.01468        0.02405
H         -4.17330        1.99546       -0.20278
H         -2.06042        3.07218        0.70624
H          3.99910        2.03895       -0.27688
H         -0.97735       -3.23946        1.11803
H          0.76277       -3.28206        1.10898
