30
Coordinates from ORCA-job ./opt_b97-3c_parallel
N          4.15904        1.64559       -2.41151
C          3.30506        1.50738       -1.66419
C          2.26119        1.29808       -0.70663
C          2.51854        2.30345        0.17600
N          1.31869        2.31337        0.70781
C          0.69323        1.14699        0.31438
C         -0.76446        1.10161        0.43298
C         -1.46889        2.26443        0.89771
N         -2.04081        3.17053        1.29599
C         -1.52737       -0.05064       -0.03863
C         -2.86260       -0.02435       -0.33408
C         -3.97920        0.86784       -0.43312
N         -4.88055        1.45839       -0.81506
C         -3.10284       -1.40315       -0.65386
N         -3.97041       -1.99964       -1.00137
C         -2.06904       -2.30434       -0.55647
C         -1.10920       -1.41590       -0.14384
N         -0.04600       -1.92226        0.39340
C          1.23315       -2.01882        0.55369
N          1.10444       -3.01293        1.01202
C          2.13484       -0.98331        0.14241
C          3.54242       -1.16177        0.32988
N          4.66912       -1.31131        0.44892
C          1.43661        0.15312       -0.41882
H          2.88765        3.27895        0.52701
H         -4.71672       -1.30574       -1.01708
H         -4.27406       -2.76913       -1.59532
H         -2.18154       -3.26661       -0.05435
H          2.04240       -2.86179        1.37833
H          0.66777       -3.71847        1.60177
