27
Coordinates from ORCA-job ./opt_b97-3c_parallel
N         -4.88518       -0.92554       -0.48769
C         -3.92111       -0.32925       -0.34462
C         -2.68809        0.38776       -0.18444
C         -2.72181        1.74958       -0.24325
N         -1.46433        2.12358       -0.07170
C         -0.64684        1.01870        0.08196
C          0.78711        1.18578        0.29956
C          1.33231        2.50790        0.41690
N          1.81658        3.53859        0.50757
C          1.71372        0.06363        0.38960
N          2.99593        0.17597        0.54124
C          3.75684       -0.37121       -0.34981
N          4.82661       -0.12243       -0.45682
C          2.78699       -1.32866       -0.31183
C          1.35934       -1.29696        0.10404
C          0.59077       -2.51210        0.16249
C         -0.82363       -2.28187        0.16959
N         -1.53132       -3.12248        0.24258
N         -1.31632       -1.29715        0.11246
C         -1.39606       -0.19550        0.03455
H         -3.56714        2.44072       -0.38406
H          5.57013       -0.74843       -0.76680
H          5.27068        0.78120       -0.29179
H          3.01862       -2.34835       -0.61830
H          0.99835       -3.51696        0.23199
H         -2.54400       -3.01048        0.27197
H         -1.33132       -4.04946        0.61326
