29
Coordinates from ORCA-job ./opt_b97-3c_parallel
N         -4.82676        0.95696       -1.06176
C         -3.72672        1.10598       -0.78965
C         -2.35122        1.33417       -0.47082
C         -1.88212        2.61564       -0.47860
N         -0.60818        2.51942       -0.11675
C         -0.20117        1.21206        0.09032
C          1.16297        0.95747        0.54909
C          1.99672        2.05929        0.93902
N          2.70974        2.90135        1.23487
C          1.75610       -0.36373        0.56639
N          3.00183       -0.61128        0.83056
C          3.88332       -0.73768       -0.11177
N          4.94398       -0.46566        0.02687
C          2.87575       -1.44331       -0.69972
C          1.41908       -1.29904       -0.46050
C          0.18966       -1.99558       -0.62928
C         -0.67985       -2.01245        0.41619
N         -0.37792       -3.26973        0.78837
C         -1.57931       -1.04878        0.06579
C         -2.83713       -1.72859       -0.04525
N         -3.82468       -2.29933       -0.10968
C         -1.35217        0.37657       -0.11540
H         -2.43233        3.54401       -0.69748
H          5.71029       -1.09327       -0.21808
H          5.38155        0.38604        0.38048
H          3.08633       -2.30353       -1.33347
H         -0.09141       -2.41013       -1.59594
H         -1.13138       -3.95431        0.86339
H          0.23857       -3.43481        1.58164
