26
Coordinates from ORCA-job ./opt_b97-3c_parallel
N          3.78914       -1.61388       -0.73211
C          3.94097       -0.95293        0.18796
C          2.94631        0.07350        0.12775
C          3.21940        1.42425       -0.23762
C          2.19033        2.32286       -0.25805
C          1.19781        1.41990        0.01916
N         -0.10592        1.91824        0.10019
C         -1.31643        1.21378        0.11723
N         -2.52515        1.80154        0.41259
C         -3.53518        0.87100        0.23066
N         -4.62231        1.01114        0.36891
N         -2.95228       -0.30247       -0.21768
C         -1.58727       -0.12331       -0.32839
C         -0.69310       -1.03614       -0.82534
C         -0.68217       -1.41848       -1.86633
N         -1.35933       -1.72436       -2.73628
C          0.07984       -1.68841        0.09611
N          0.19809       -2.40180        0.93166
N          0.80353       -0.85015        0.77129
C          1.60114        0.08425        0.35935
H          4.23369        1.72969       -0.48158
H          2.09653        3.04781       -1.06397
H         -5.14996        1.85151        0.61273
H         -5.32555        0.31402        0.11813
H          1.14986       -2.76913        0.88720
H         -0.37493       -3.17015        1.27876
