28
Coordinates from ORCA-job ./opt_b97-3c_parallel
N          2.62568       -4.09548        0.02449
C          1.93525       -3.18552        0.03906
C          1.11232       -2.01189        0.05408
C         -0.28292       -2.32912        0.15255
N         -1.50323       -1.68835        0.12381
C         -1.92686       -0.38085        0.05427
C         -3.28023       -0.16629        0.01566
C         -4.42891       -1.02343       -0.00381
N         -5.50675       -0.84294       -0.33919
C         -3.47822        1.25754       -0.00256
N         -4.21905        2.08090       -0.03255
N         -2.28477        1.87985        0.03436
C         -1.30651        0.89672        0.06639
C          0.05281        1.36252        0.10221
C          1.31442        0.65301        0.04565
C          2.51261        1.45275        0.00697
C          2.63203        2.87701        0.03722
N          2.69382        4.01623        0.07391
C          3.62880        0.56467       -0.08253
N          4.72646        0.44113       -0.15107
N          3.15031       -0.72762       -0.08330
C          1.75968       -0.71391       -0.00532
H         -0.75143       -3.32482        0.20921
H         -5.09234        1.56542       -0.17100
H         -4.48955        3.06424        0.01396
H          0.12164        2.44628        0.12529
H          5.29367        1.29101       -0.13667
H          5.39248       -0.32479       -0.26818
