26
Coordinates from ORCA-job ./opt_b97-3c_parallel
N         -5.24100       -1.74590       -0.67780
C         -4.40277       -0.98882       -0.50506
C         -3.38139       -0.00936       -0.29513
C         -3.48638        1.34451       -0.39434
C         -2.35080        1.91328       -0.00716
C         -1.45798        0.95479        0.36659
N         -0.40782        1.14381        1.08801
C          0.67075        0.85380        0.44708
C          1.63798        1.83339        0.02859
C          1.47153        3.24437        0.20163
N          1.33948        4.37473        0.30595
C          2.80640        1.38650       -0.54568
C          2.54568        0.04457       -0.45933
C          3.67166       -0.67422       -0.97053
N          4.43575       -1.35694       -1.47598
C          1.27806       -0.29386        0.08136
C          0.87192       -1.65065        0.31846
C          1.42521       -2.96708        0.24483
N          2.34096       -3.55375        0.59821
C         -0.38010       -2.11327        0.69984
N         -1.66955       -1.59975        0.53542
C         -2.05630       -0.32220        0.14249
H         -4.37096        1.87929       -0.73204
H         -2.16607        2.98491        0.01901
H          3.76563        1.79855       -0.23396
H         -1.13568       -2.86936        0.96388
