26
Coordinates from ORCA-job ./opt_b97-3c_parallel
N          5.31192        0.44624        0.65685
C          4.30960       -0.01806        0.36749
C          3.05810       -0.62338        0.03616
C          3.04543       -2.00446       -0.34316
C          1.84977       -2.59195       -0.65721
C          1.08039       -1.47572       -0.46828
N         -0.16382       -1.92373       -0.14377
C         -1.32797       -1.17544        0.00613
N         -2.53292       -1.62558        0.52402
C         -3.49348       -0.64199        0.35333
N         -4.46910       -0.97561        0.76030
C         -2.88697        0.46486       -0.32292
C         -3.54964        1.66898       -0.71128
N         -4.10522        2.62702       -0.98735
C         -1.52061        0.11791       -0.56393
N         -0.66224        0.79971       -1.24293
C          0.00472        1.45435       -0.35148
C          1.23735        1.01268        0.23483
C          1.98075        2.00209        0.95105
N          2.53900        2.80923        1.53518
C          1.74071       -0.25381       -0.05683
H          3.98051       -2.55761       -0.36260
H          1.59755       -3.56849       -0.24278
H         -5.17097       -0.26955        0.99422
H         -4.97704       -1.86263        0.75836
H         -0.32795        2.49277       -0.19186
