26
Coordinates from ORCA-job ./opt_b97-3c_parallel
N         -1.91881        3.91470        0.00383
C         -1.17265        3.04925        0.00279
C         -0.27045        1.92428        0.00165
C          1.11606        2.31536        0.00101
C          2.32566        1.66560        0.00042
C          2.73197        0.29309       -0.00051
N          4.01717        0.04861       -0.00035
C          4.17349       -1.22801       -0.00176
C          3.04473       -1.88214       -0.00311
C          2.08556       -0.93128       -0.00245
C          0.72064       -1.35497       -0.00460
C         -0.51847       -0.62823       -0.00309
C         -1.61475       -1.45998       -0.00540
C         -2.03204       -2.82709       -0.00964
N         -2.70312       -3.75195        0.00701
C         -2.76592       -0.60775       -0.00228
N         -3.84213       -0.34825       -0.00116
N         -2.27110        0.63252        0.00123
C         -0.92113        0.68783        0.00024
H          1.23050        3.39767        0.00199
H          3.17222        2.34843        0.00128
H          5.21672       -1.57732       -0.00230
H          2.91729       -2.96272       -0.00455
H          0.61735       -2.43730       -0.00661
H         -4.31710       -1.25202        0.00213
H         -4.57864        0.35771        0.00164
