27
Coordinates from ORCA-job ./opt_b97-3c_parallel
N         -3.11274        1.21002        2.11409
C         -2.22696        1.42615        1.42498
C         -1.14585        1.69240        0.52201
C         -0.55846        2.99238        0.44178
N         -0.00227        2.41856       -0.31853
C          0.70668        1.58004       -0.45873
C          1.96469        1.03029       -0.45209
C          2.71979        1.69040       -0.93031
N          3.63011        2.31930       -1.22268
C          2.33336       -0.18438        0.07281
N          3.14988       -0.92284        0.21087
N          1.52329       -1.01142        0.66253
C          0.47376       -1.73159        0.40068
C          0.48903       -3.10901        0.78045
C         -0.63471       -3.73140        0.35594
C         -1.37071       -2.83588       -0.27673
C         -0.74589       -1.62136       -0.24605
C         -1.20983       -0.38551       -0.83238
C         -2.38044       -0.15232       -1.61900
N         -3.47815       -0.26019       -1.91539
C         -0.51928        0.82045       -0.43911
H         -0.78097        3.91655        0.99541
H          3.21402       -1.91332       -0.01683
H          3.75191       -0.43162       -0.44757
H          1.32476       -3.57623        1.29344
H         -0.88262       -4.78029        0.50348
H         -2.33861       -3.03132       -0.73190
