26
Coordinates from ORCA-job ./opt_b97-3c_parallel
N         -4.73593       -0.93108        0.08128
C         -3.88397       -0.17045        0.04280
C         -2.79127        0.75052       -0.01912
C         -3.03717        2.15808       -0.10374
C         -1.96063        3.00248       -0.18249
C         -1.00375        2.02782       -0.10572
N          0.17585        2.65369       -0.08297
C          1.47995        2.21318       -0.00176
C          2.25499        1.00598        0.01608
C          3.65915        1.29601        0.04824
N          4.77503        1.54455        0.04796
C          1.83675       -0.38334       -0.01027
C          2.76799       -1.39277       -0.01728
C          2.18154       -2.57477       -0.00140
C          0.84179       -2.39645        0.01758
C         -0.07920       -3.49396        0.02667
N         -0.83131       -4.35507        0.01133
C          0.52697       -0.98912        0.01287
C         -0.79874       -0.60845        0.03958
C         -1.42730        0.67681       -0.02041
H         -4.06081        2.52072       -0.10726
H         -1.91881        3.90567        0.42390
H          1.84722        3.25062        0.00133
H          3.84857       -1.27170       -0.03358
H          2.69366       -3.53460       -0.00294
H         -1.52121       -1.41510        0.08365
