26
Coordinates from ORCA-job ./opt_b97-3c_parallel
N         -3.89443       -1.63440        0.00839
C         -2.86334       -1.16922       -0.16553
C         -1.49011       -0.72293       -0.13239
C         -0.48961       -1.80452       -0.19040
N         -0.74096       -2.88422       -0.27398
C          0.89415       -1.86103        0.04588
C          1.83874       -0.77714        0.10599
C          3.20087       -1.03284        0.42141
C          3.88331        0.12007        0.22427
C          3.02265        1.04005       -0.19791
C          1.75892        0.52008       -0.31013
N          0.78976        1.03945       -0.96571
C         -0.18837        1.44778       -0.23877
C         -0.57354        2.74208       -0.06993
C         -1.85322        2.74882        0.27303
C         -2.34229        1.52027        0.36506
C         -1.32801        0.65004        0.06942
H         -1.68504       -3.08773        0.05063
H         -0.29802       -3.77997       -0.46734
H          1.40700       -2.81661        0.19875
H          3.60801       -2.00954        0.66560
H          4.95025        0.26318        0.38014
H          3.29128        2.06599       -0.43814
H          0.05258        3.62030       -0.20810
H         -2.43437        3.64957        0.45658
H         -3.36778        1.27520        0.63417
