26
Coordinates from ORCA-job ./opt_b97-3c_parallel
N          5.56693        0.07959        0.27192
C          4.54708       -0.41630        0.13836
C          3.24434       -0.98179       -0.01193
C          2.84123       -2.28375       -0.01710
C          1.51681       -2.35607       -0.11823
C          0.98165       -1.10435       -0.18112
N         -0.25580       -0.73833       -0.27808
C         -1.36515       -0.08926       -0.13485
C         -2.65996       -0.52278       -0.03334
C         -3.17256       -1.85462       -0.04961
N         -3.54897       -2.93212       -0.07168
C         -3.52029        0.62472        0.10461
N         -4.50638        1.10410        0.22641
N         -2.81015        1.77076        0.07881
C         -1.51151        1.33365       -0.05849
N         -0.51755        2.25820       -0.10239
C          0.79613        1.80863       -0.11951
N          1.34235        2.77015       -0.15160
N          2.04642        1.21672       -0.13219
C          2.07062       -0.17750       -0.12037
H          3.50795       -3.14146        0.05114
H          0.94652       -3.28300       -0.14653
H         -5.04322        1.80652        0.73536
H         -5.16434        0.35865       -0.00253
H          2.02107        3.12206        0.52742
H          1.42805        3.38950       -0.95952
