31
Coordinates from ORCA-job ./opt_b97-3c_parallel
N          2.06975        2.94243        2.32714
C          1.27661        2.46588        1.65359
C          1.09373        1.93295        0.69980
C          0.14217        2.48576       -0.10756
N         -0.38756        1.69048       -0.98501
C         -1.28500        0.87252       -0.53412
C         -2.65034        1.05756       -0.61362
C         -3.27422        2.21797       -1.18616
N         -3.42736        3.21185       -0.64292
C         -3.30238       -0.09894       -0.06135
N         -4.40473       -0.20454       -0.04265
C         -2.33629       -0.98008        0.37350
C         -2.64693       -2.25663        0.95473
N         -2.92732       -3.27243        1.39464
C         -1.03996       -0.39688        0.10757
C          0.25466       -1.07799        0.30301
C          0.32186       -2.43291        0.76127
N          0.42908       -3.49942        1.15433
C          1.52226       -0.42176       -0.02517
C          2.71026       -1.10907       -0.45738
C          2.90230       -2.47544       -0.83596
N          3.09495       -3.55241       -1.16311
C          3.70985       -0.09781       -0.61452
N          4.75771        0.01872       -0.94738
N          3.16957        1.06773       -0.22879
C          1.88699        0.95683        0.15954
H         -0.51490        3.36488       -0.00936
H         -4.82483       -1.13171        0.01566
H         -5.14543        0.43016       -0.33870
H          5.43277        0.73525       -1.21502
H          5.19881       -0.87571       -1.16815
