29
Coordinates from ORCA-job ./opt_b97-3c_parallel
N         -3.10039       -2.74378        1.06053
C         -2.72559       -1.70546        0.76987
C         -2.21203       -0.41890        0.38928
C         -3.13251        0.66120        0.23571
N         -4.22134        0.81165        0.35379
C         -2.58199        1.83651       -0.19206
C         -1.24682        1.53096       -0.19746
C         -0.31944        2.48836       -0.74831
C          0.95984        2.62758       -0.13195
C          1.25474        1.97504        1.02190
C          2.01470        1.02027        0.43532
C          3.43408        0.95940        0.38747
C          3.75099       -0.33193       -0.15087
N          4.51160       -1.07924       -0.43940
N          2.57076       -1.01301       -0.41657
C          1.57566       -0.17135       -0.06499
C          0.18812       -0.64484       -0.09648
C          0.07258       -2.06433       -0.31606
N          0.13752       -2.88216       -1.11221
C         -1.01133        0.18714        0.09413
H         -4.57694       -0.14076        0.42313
H         -5.02713        1.42993        0.43329
H         -3.02433        2.42857       -0.99452
H         -0.68188        3.32788       -1.33523
H          1.56046        3.47388       -0.45672
H          1.60705        2.52056        1.89415
H          4.13396        1.70736        0.74708
H          5.49979       -0.97200       -0.21107
H          4.38502       -2.06310       -0.67962
