29
Coordinates from ORCA-job ./opt_b97-3c_parallel
N         -4.99032       -0.07725       -0.35510
C         -3.94846        0.16068        0.04659
C         -2.62185        0.44616        0.50616
C         -2.37469        1.26778        1.64885
N         -1.35173        1.03471        1.29763
C         -1.02184        1.37900        0.29698
C         -0.16373        2.09516       -0.49243
C         -0.77080        2.84052       -1.04892
N         -1.04671        3.91197       -1.33919
C          1.11354        1.70358       -0.55731
N          2.01234        2.18899       -1.44056
C          1.63131        0.76775        0.31289
C          2.58427        1.33586        1.22268
N          3.36262        1.75015        1.94867
C          1.46366       -0.66870        0.23096
N          2.34182       -1.56052        0.77894
C          1.88589       -2.77204        0.27575
N          2.46549       -3.64848        0.61383
N          0.88682       -2.69504       -0.56777
C          0.53547       -1.44606       -0.51686
C         -0.76679       -0.96123       -0.92250
C         -1.71553       -1.79427       -1.59185
N         -2.45004       -2.49548       -2.11399
C         -1.36933        0.03166       -0.06338
H         -3.18415        1.71725        2.24488
H          2.99452        2.26953       -1.17931
H          1.77988        3.01612       -1.98981
H          2.09637       -4.59728        0.66947
H          3.42643       -3.69761        0.95273
