23
Coordinates from ORCA-job ./opt_b97-3c_parallel
N          2.72901        3.37177       -0.02921
C          1.90733        2.58261       -0.03366
C          0.85748        1.58439       -0.02720
C         -0.43138        2.16163        0.00482
C         -1.77234        1.73774        0.00428
C         -2.39950        0.48378       -0.06858
N         -3.73444        0.36362       -0.03507
C         -3.53365       -0.73616       -0.03685
N         -2.92793       -1.67774       -0.06099
C         -1.86347       -0.86891       -0.14053
N         -0.66934       -1.08090        0.40805
C          0.59429       -1.06566       -0.01232
N          1.38384       -2.14840       -0.06512
C          2.40722       -1.75572       -0.04854
N          3.64829       -2.32755       -0.02031
C          2.26365       -0.33199       -0.05185
C          1.31120        0.24451       -0.04661
H         -0.40210        3.25181        0.03995
H         -2.46880        2.57284        0.05604
H         -4.57880       -1.00637        0.01513
H          4.48589       -1.75658        0.00194
H          3.74355       -3.33694       -0.00174
H          3.15939        0.28351       -0.02587
