27
Coordinates from ORCA-job ./opt_b97-3c_parallel
N         -2.42028        3.49534        0.04128
C         -1.69846        2.61662       -0.07466
C         -0.75421        1.54638       -0.23469
C          0.33295        1.97247       -0.91939
C          1.19523        2.27893        0.07922
C          2.15003        1.34589        0.37672
N          3.33803        1.74713        0.93037
C          4.20856        0.67785        0.79572
N          3.57248       -0.38047        0.16416
C          2.27034        0.00217       -0.08204
C          1.30384       -0.97790       -0.58412
C          1.85057       -2.22052       -1.05938
N          2.25125       -3.22133       -1.44087
C         -0.13358       -0.96825       -0.27717
C         -0.83635       -2.14560       -0.19132
C         -2.08536       -1.77519        0.23986
N         -2.76197       -2.64282        0.34434
C         -2.24765       -0.41826        0.38699
C         -3.45415        0.26725        0.74447
N         -4.43712        0.77818        1.02656
C         -0.98408        0.14957        0.02796
H          0.25001        2.59742       -1.80684
H          1.29257        3.30425        0.42528
H          5.24572        0.37630        1.00672
H         -0.36202       -3.04397        0.20629
H         -3.72356       -2.30847        0.38904
H         -2.80694       -3.64125        0.14806
