29
Coordinates from ORCA-job ./opt_b97-3c_parallel
N          3.88441       -3.18210        1.08628
C          2.91883       -2.62169        0.84155
C          1.71836       -1.92501        0.48857
C          0.47212       -2.63537        0.62800
C         -0.58032       -2.44885       -0.21394
C         -1.66248       -1.67313        0.05586
N         -2.86525       -2.26747       -0.24347
C         -3.72888       -1.28379       -0.13558
C         -2.82906       -0.26748       -0.03557
C         -3.46503        0.86617       -0.63712
N         -3.94632        1.79036       -1.10824
C         -1.56036       -0.38057        0.46343
C         -0.43218        0.25711        0.89632
C         -1.04258        1.30979        1.65473
N         -1.52583        2.12696        2.29033
C          0.74270        0.38265        0.06128
C          1.37129        1.63048       -0.22793
C          0.86609        2.96625       -0.11436
N          0.48988        4.04263       -0.04025
C          2.67008        1.25049       -0.68383
N          3.52614        1.85565       -1.03163
C          2.93500       -0.09334       -0.65876
C          1.76657       -0.61752       -0.15723
H          0.53170       -3.58270        1.15710
H         -0.60953       -3.06760       -1.10872
H         -4.74417       -1.63633       -0.37417
H          4.54221        1.79377       -1.06246
H          3.29692        2.83269       -0.85407
H          3.91393       -0.47555       -0.36995
