30
Coordinates from ORCA-job ./opt_b97-3c_parallel
N          4.67046       -1.24115        2.13191
C          3.89555       -0.68109        1.50514
C          2.90912       -0.01948        0.70725
C          3.62039        0.20417       -0.43524
N          2.76721        0.98139       -1.06050
C          1.59651        0.90698       -0.32755
C          0.61790        1.96260       -0.49209
C          0.95428        3.10017       -1.31699
N          1.19930        4.02136       -1.94825
C         -0.48967        1.99698        0.46503
N         -0.77027        3.02903        0.78042
C         -1.39056        0.93823        0.69475
C         -2.60948        1.18751        1.43236
N         -3.44273        1.46537        2.16406
C         -1.43699       -0.35922        0.16448
C         -2.56893       -1.11022       -0.13477
C         -4.00178       -1.07799       -0.21148
N         -4.67350       -0.42575       -0.86969
C         -2.32123       -2.36792       -0.64906
C         -0.95949       -2.41647       -0.66727
C         -0.24322       -3.60875       -1.00229
N          0.34139       -4.56285       -1.23438
C         -0.35992       -1.22546       -0.17933
C          1.04506       -1.12989        0.09707
C          1.47193        0.04026        0.80763
H          4.43735        0.39648       -1.14705
H         -0.26095        3.89964        0.63451
H         -1.66102        3.28131        1.20701
H         -2.88363       -3.24690       -0.32935
H          1.69415       -1.96616       -0.15229
