25
Coordinates from ORCA-job ./opt_b97-3c_parallel
N         -3.72743        1.74954       -0.51619
C         -3.04167        0.84717       -0.37132
C         -2.22026       -0.31447       -0.21080
C         -2.73446       -1.54231       -0.49605
C         -1.78791       -2.45804       -0.36877
C         -0.63016       -1.85796        0.01658
N          0.35287       -2.61053        0.63299
C          1.41683       -1.87633        1.04396
C          2.24787       -1.57592       -0.06627
C          2.36060       -0.17882       -0.30912
C          3.46914        0.44907       -0.77343
C          3.33782        1.72843       -0.44994
C          2.18717        1.97478        0.16889
C          1.48034        0.80622        0.24731
C          0.04050        0.70946        0.52231
C         -0.57231        1.92555        0.97325
N         -1.02282        2.90524        1.35329
C         -0.81282       -0.42026        0.10529
H         -3.76346       -1.74282       -0.78688
H         -1.91886       -3.52453       -0.53723
H          1.52919       -2.94575        1.27735
H          2.95365       -2.29955       -0.46302
H          4.31777       -0.01127       -1.27387
H          4.08697        2.48769       -0.66210
H          1.87127        2.95100        0.52956
