23
Coordinates from ORCA-job ./opt_b97-3c_parallel
N          4.54612        1.15002       -0.10452
C          3.98769        0.15988        0.01149
C          2.62680       -0.27922       -0.02658
C          2.50712       -1.69797       -0.10434
C          1.25966       -2.24988       -0.14218
C          0.57503       -1.06302       -0.08661
N         -0.76477       -1.38729       -0.09836
C         -1.91586       -0.63444       -0.05556
N         -3.09210       -1.36208       -0.06260
C         -4.15335       -0.47608       -0.02598
C         -3.64180        0.85533       -0.00059
C         -2.22071        0.75863       -0.01620
C         -1.50227        1.99855        0.00703
C         -0.09767        2.27790        0.03190
C          1.03487        1.49768        0.03043
C          1.32968        0.15215       -0.02089
H          3.39158       -2.32962       -0.12888
H          1.01138       -3.08688        0.50889
H         -5.22644       -0.72174       -0.01759
H         -4.23233        1.76623        0.02963
H         -2.12285        2.89067        0.02382
H          0.08711        3.34870        0.06401
H          1.92581        2.11923        0.06872
