29
Coordinates from ORCA-job ./opt_b97-3c_parallel
N          5.22901        0.08912        1.56110
C          4.22479        0.43106        1.13699
C          2.98834        0.87613        0.57244
C          2.74748        2.28255        0.43182
C          1.57774        2.69399       -0.15593
C          1.07615        1.44807       -0.41727
N          0.09446        1.29606       -1.23386
C         -0.93368        1.18344       -0.46540
C         -1.75665        2.24199       -0.19096
C         -2.88383        1.62655        0.29880
N         -3.67938        2.35099        0.55554
C         -2.80093        0.25236        0.36276
C         -3.81635       -0.64651        0.82700
N         -4.65074       -1.33086        1.20343
C         -1.48479       -0.06976       -0.10217
C         -0.97135       -1.39115       -0.43799
C         -1.86486       -2.50346       -0.56638
N         -2.54526       -3.41386       -0.68673
C          0.43952       -1.73263       -0.60608
C          1.60713       -1.04879       -0.24705
C          2.66362       -2.01474       -0.14825
N          3.51749       -2.61521       -0.61576
C          1.84505        0.35186        0.03926
H          3.50573        2.98665        0.76302
H          1.58221        3.47162       -0.91673
H         -1.81430        3.09078       -0.87248
H         -4.48886        1.75518        0.72407
H         -4.04035        3.27262        0.31532
H          0.54927       -2.78750       -0.86029
