22
Coordinates from ORCA-job ./opt_b97-3c_parallel
N          3.56385       -2.44191        0.00076
C          2.60288       -1.82288        0.00121
C          1.41467       -1.00973        0.00073
C          0.26531       -1.77140       -0.00001
C         -1.09302       -1.92367        0.00097
C         -2.05622       -0.94106        0.00067
N         -3.36311       -1.20861        0.00101
C         -4.01173        0.00736        0.00065
N         -3.09076        1.03369        0.00021
C         -1.87499        0.47378        0.00024
C         -0.80155        1.31583       -0.00023
C          0.55756        1.39425       -0.00018
N          1.25308        2.59204       -0.00052
C          2.56745        2.40338       -0.00025
C          2.76297        1.08999        0.00025
C          1.58532        0.42307        0.00031
H          0.56695       -2.82089       -0.00155
H         -1.46538       -2.94545        0.00120
H         -5.11152        0.04434        0.00071
H         -1.16870        2.34274       -0.00063
H          3.27066        3.24966       -0.00054
H          3.74701        0.62742        0.00045
