25
Coordinates from ORCA-job ./opt_b97-3c_parallel
N         -4.66435       -1.45541       -1.41091
C         -3.64875       -1.24814       -0.92943
C         -2.40108       -0.97378       -0.28134
C         -1.69847       -2.05392        0.34722
C         -0.54310       -1.85017        1.03420
C          0.51334       -1.71410        0.18890
N          1.65632       -2.12667       -0.27288
C          2.86555       -1.97478       -0.72391
C          2.46684       -0.69576       -0.49637
C          3.74691       -0.18611       -0.90970
N          4.65088        0.50798       -0.99858
C          1.13804       -0.50373       -0.01542
C          0.68130        0.84529        0.31462
C          1.65890        1.89492        0.42510
N          2.41449        2.39654        1.12151
C         -0.72778        1.19899        0.50051
N         -1.04185        2.42527        0.81834
C         -2.14326        2.51632        0.17533
C         -2.63483        1.42890       -0.36068
C         -1.73635        0.29224       -0.04919
H         -2.12763       -3.04940        0.27049
H         -0.40730       -2.26304        2.03061
H          3.43613       -2.87975       -0.98260
H         -2.58923        3.52237        0.18106
H         -3.59864        1.47387       -0.86335
