29
Coordinates from ORCA-job ./opt_b97-3c_parallel
N         -3.74506       -1.46723        2.59076
C         -3.11225       -1.46774        1.63989
C         -2.30553       -1.40997        0.45806
C         -2.20568       -2.49127       -0.46987
N         -1.53250       -1.71192       -0.88192
C         -0.57507       -1.24127       -0.57133
C          0.78712       -1.30782       -0.32239
C          1.12355       -2.36837       -0.26347
N          1.73909       -3.09642       -0.89497
C          1.53650       -0.19674       -0.19524
C          2.86999       -0.15674        0.11544
C          4.01196       -1.01707        0.22734
N          4.59835       -1.28720        1.17116
C          3.20938        1.13277        0.43589
N          3.93126        1.90867        0.76845
N          2.09852        1.90997        0.19620
C          1.07169        1.08952       -0.25859
N          0.09020        1.89064       -0.53261
C         -1.19744        2.02411       -0.63892
N         -1.03096        3.06954       -0.95191
C         -2.14236        0.97742       -0.34664
C         -3.54618        1.21210       -0.46855
N         -4.66302        1.43210       -0.55285
C         -1.53316       -0.29968       -0.02131
H         -2.73086       -3.44792       -0.32266
H          4.72244        1.30610        1.01274
H          4.17886        2.82891        1.13837
H         -2.04557        3.03674       -1.05859
H         -0.72654        3.89693       -1.46431
