27
Coordinates from ORCA-job ./opt_b97-3c_parallel
N          5.31392       -1.47789       -0.00804
C          4.39998       -0.79331       -0.00498
C          3.22313        0.03115       -0.00306
C          3.42139        1.44590       -0.00196
N          2.31981        1.35851        0.00046
C          1.24391        1.10369       -0.00059
C         -0.14604        1.51106       -0.00259
C         -0.11752        2.94591       -0.00454
N         -0.69023        3.93528        0.00410
C         -1.34450        0.70290       -0.00705
N         -2.50414        1.26198       -0.01759
C         -3.66595        0.71569        0.01883
N         -4.66252        1.18838        0.00862
C         -2.80225       -0.34036        0.00924
C         -1.34150       -0.73168       -0.00160
C         -1.00199       -2.13653       -0.00920
C         -1.87460       -3.27303       -0.01300
N         -2.60715       -4.14905       -0.01351
C          0.40085       -2.40169       -0.00977
C          1.42841       -1.50824        0.00005
C          1.86102       -0.20143       -0.00142
H          4.33859        2.05437       -0.00261
H         -5.55518        0.69523        0.00607
H         -4.88697        2.18277        0.00760
H         -3.31260       -1.29723        0.00866
H          0.65857       -3.45917       -0.01353
H          2.29755       -2.15986        0.01165
