29
Coordinates from ORCA-job ./opt_b97-3c_parallel
N          4.83997       -2.12273       -0.25076
C          4.06133       -1.29481       -0.13038
C          3.07378       -0.27289        0.06008
C          3.41694        0.93199        0.74084
N          2.35987        1.14041        0.46463
C          1.29032        1.07924        0.15662
C          0.02510        1.61482       -0.27417
C          0.01279        3.03580       -0.46312
N         -0.01458        4.16490       -0.63952
C         -1.23048        0.85678       -0.32551
C         -2.42031        1.51285       -0.53512
C         -3.38630        0.63203       -0.12134
N         -4.41506        1.02780       -0.19481
C         -2.89433       -0.58723        0.27526
C         -3.60812       -1.75351        0.70846
N         -4.17791       -2.69225        1.02257
C         -1.47728       -0.49861        0.12365
C         -0.66540       -1.66978        0.39602
C          0.61420       -1.85295       -0.22205
N          1.05668       -2.86104       -0.12331
N          1.16241       -1.00683       -1.02590
C          1.76072       -0.12404       -0.29256
H          4.17521        1.53457        1.26249
H         -2.53184        2.57924       -0.34285
H         -5.07544        0.36342        0.20689
H         -4.85730        1.94421       -0.15385
H         -1.11805       -2.52939        0.88479
H          0.40804       -3.34644       -0.73978
H          1.99522       -3.06371       -0.46420
