27
Coordinates from ORCA-job ./opt_b97-3c_parallel
N         -4.19531       -1.69974       -0.43543
C         -3.07385       -1.73380       -0.21825
C         -1.67060       -1.81758        0.06716
C         -1.16190       -2.83744        0.92338
N         -0.27581       -2.26386        0.57592
C          0.59629       -1.66858        0.20929
C          1.87766       -1.24694       -0.33120
C          2.36398       -2.58980       -0.53343
N          3.18447       -3.36381       -0.34478
C          2.39281        0.12825       -0.32450
N          3.46182       -0.02681       -0.58498
C          1.80295        1.29399        0.18100
C          2.68238        2.37119        0.54988
N          3.39440        3.22720        0.80866
C          0.38446        1.53759        0.25100
N         -0.24935        2.57715        0.70978
C         -1.51877        2.80086        0.54072
C         -1.71090        1.69497       -0.23183
C         -3.09807        1.84477       -0.54570
N         -4.23947        1.82409       -0.48156
C         -0.56938        0.88258       -0.46214
N         -0.60329       -0.13905       -1.24818
C         -0.59393       -1.09789       -0.37364
H         -1.58356       -3.67391        1.50041
H          4.06400       -0.84644       -0.51380
H          4.07562        0.78657       -0.59542
H         -1.70321        3.75759        1.05183
