24
Coordinates from ORCA-job ./opt_b97-3c_parallel
N          2.69152       -3.38060       -0.08053
C          2.56970       -2.24470       -0.05619
C          2.37750       -0.82782       -0.06123
C          3.47421        0.07178        0.13970
C          3.23384        1.42184        0.09050
C          1.88088        1.32587       -0.07902
N          1.32427        2.53173       -0.27471
C         -0.03625        2.55809       -0.25181
N         -1.31434        2.57613       -0.22914
C         -1.70327        1.35827       -0.05426
C         -3.08289        1.17248        0.30745
C         -3.57133       -0.09966        0.48058
C         -2.43170       -0.76036        0.12327
C         -2.68573       -2.16856        0.18886
N         -2.53234       -3.21565       -0.24388
C         -1.29661        0.05980       -0.11883
C         -0.01813       -0.58432       -0.31638
C          1.30659        0.00620       -0.18216
H          4.46211       -0.33395        0.33547
H          3.65977        2.08832        0.83805
H          0.01459        3.62034       -0.54763
H         -3.71112        2.04587        0.45523
H         -4.55670       -0.38396        0.11786
H         -0.04561       -1.66716       -0.37917
