32
Coordinates from ORCA-job ./opt_b97-3c_parallel
N         -4.79636       -1.03378       -2.59308
C         -4.11182       -0.58165       -1.79890
C         -3.26460       -0.05332       -0.77482
C         -3.79028        0.77260        0.26703
N         -2.79084        0.85966        0.71682
C         -1.72915        0.69305        0.46463
C         -0.45519        1.35142        0.65705
C         -0.48653        2.62363        1.31733
N         -0.51671        3.62363        1.87034
C          0.78399        0.81000        0.09598
C          1.85894        1.62184       -0.21408
C          2.13885        3.03138       -0.24110
N          2.00572        3.91488       -0.95357
C          2.93121        0.76961       -0.67685
N          3.94864        1.03416       -1.03634
C          2.53054       -0.55216       -0.60331
C          3.31674       -1.70251       -0.95863
N          3.97051       -2.59068       -1.25843
C          1.17980       -0.56861       -0.09796
C          0.47188       -1.78642        0.28391
C          0.97215       -3.13231        0.28765
N          1.34717       -4.21179        0.32359
C         -0.78270       -1.91248        0.80541
N         -1.67797       -2.41390        1.67362
C         -1.55203       -1.62432       -0.28075
C         -1.85082       -0.26018       -0.60653
H         -4.72903        1.21975        0.62651
H          4.71100        0.42180       -1.32359
H          4.25168        1.98939       -1.22061
H         -2.65275       -2.51723        1.39534
H         -1.43397       -3.23059        2.23207
H         -1.83456       -2.42311       -0.96281
