28
Coordinates from ORCA-job ./opt_b97-3c_parallel
N         -5.35147        0.75252        0.51362
C         -4.23980        0.96854        0.35943
C         -2.83960        1.19888        0.16681
C         -2.43257        2.48703       -0.00935
N         -1.13657        2.30947       -0.20954
C         -0.65722        1.00498       -0.17620
C          0.77585        0.79168       -0.28276
C          1.52492        1.97893       -0.60962
N          2.08647        2.93276       -0.89800
C          1.49105       -0.46420       -0.05737
C          2.92877       -0.45210        0.14942
C          3.85266        0.58346        0.51295
N          4.61269        1.37810        0.82518
C          3.39491       -1.71438        0.19909
C          2.36373       -2.51526        0.04603
C          1.18494       -1.82405       -0.07628
C         -0.00753       -2.60388       -0.27092
C         -1.35466       -2.32491       -0.17543
N         -1.99376       -3.22774       -0.23161
C         -2.16170       -1.17336        0.10838
C         -1.80516        0.21420        0.07832
H         -2.84790        3.50546       -0.02791
H          4.43339       -2.01879        0.31027
H          2.44809       -3.59979        0.02607
H          0.23670       -3.66025       -0.39723
H         -1.67285       -4.18844       -0.12613
H         -3.00717       -3.24935       -0.13234
H         -3.22463       -1.36500        0.24519
