23
Coordinates from ORCA-job ./opt_b97-3c_parallel
N         -3.02380       -2.98858        0.07912
C         -2.09033       -2.33150        0.05354
C         -0.94819       -1.46242        0.01476
C          0.35461       -2.12862        0.00683
C          1.75930       -1.73371        0.00276
C          2.44352       -0.52953       -0.00772
N          3.77485       -0.44600        0.02944
C          4.10076        0.89681       -0.00037
N          2.94064        1.64797       -0.06412
C          1.92202        0.78555       -0.07241
N          0.67285        1.04308       -0.15354
C         -0.60435        1.04481       -0.10961
C         -1.28957        2.22120       -0.18192
C         -2.56457        1.71701       -0.08194
N         -3.62182        2.05078       -0.05147
N         -2.64427        0.33440       -0.00512
C         -1.38194       -0.13062       -0.02403
H          0.26326       -3.21257        0.02840
H          2.39703       -2.61482        0.02557
H          5.19778        0.99506        0.03058
H         -0.98239        3.09940        0.38389
H         -3.95534        3.01739       -0.03527
H         -4.47442        1.48610       -0.02782
