22
Coordinates from ORCA-job ./opt_b97-3c_parallel
N          4.99598        0.85985       -0.17762
C          3.93407        0.44372       -0.12730
C          2.57701       -0.02817       -0.06104
C          2.74657       -1.37931       -0.00688
N          1.50716       -1.80946        0.05465
C          0.61027       -0.75748        0.03923
C         -0.81177       -1.07128        0.05627
C         -1.21284       -2.45277        0.10716
N         -1.56517       -3.53964        0.14829
C         -1.86718       -0.05801       -0.00949
N         -3.18209       -0.46835       -0.06471
C         -3.97958        0.65784       -0.12803
N         -3.17509        1.78211       -0.10360
C         -1.86087        1.37934       -0.03240
C         -0.90454        2.35053        0.03842
C          0.44649        2.29598        0.12729
N          1.20229        1.50786        0.08711
C          1.28209        0.42120       -0.04340
H          3.32975       -2.31262       -0.01095
H         -5.06985        0.51752       -0.18149
H         -1.29983        3.36596        0.04738
H          0.77191        3.34514        0.20495
