30
Coordinates from ORCA-job ./opt_b97-3c_parallel
N         -2.36470       -4.24405        0.00183
C         -1.76673       -3.27021       -0.01951
C         -1.00089       -2.05872       -0.01077
C          0.40454       -2.32461        0.01605
N          1.59304       -1.63368        0.00595
C          1.95079       -0.30490        0.00751
C          3.29196       -0.04041        0.00797
C          4.46246       -0.86771       -0.00947
N          5.53689       -1.25810       -0.01754
C          3.32224        1.38389        0.05336
N          4.14186        2.12659        0.09433
C          2.12325        2.03998        0.06748
C          1.27532        0.95637        0.05163
C         -0.05767        1.30391        0.06874
C         -1.27205        0.52968        0.01208
C         -2.47344        1.30814       -0.00666
C         -2.79863        2.70652        0.01452
N         -2.74704        3.84784        0.05707
C         -3.55863        0.49226       -0.06608
N         -4.88252        0.72708       -0.11798
C         -3.06700       -0.73820       -0.07965
C         -1.69141       -0.78486       -0.03245
H          1.00952       -3.24345        0.02515
H          4.44877        3.09731        0.07457
H          4.98309        1.55158        0.07859
H          1.93704        2.89823       -0.58001
H         -0.23100        2.37534        0.10943
H         -5.54473        0.01493        0.18403
H         -5.25230        1.63868        0.14716
H         -3.71446       -1.61095       -0.13427
