25
Coordinates from ORCA-job ./opt_b97-3c_parallel
N          4.49330       -1.60075        1.11641
C          3.76281       -0.74741        0.91050
C          2.80972        0.28341        0.63615
C          3.02833        1.61781        0.81647
N          1.91384        2.17041        0.34855
C          0.94781        1.28940       -0.11280
C         -0.25605        1.47088       -0.72567
C         -0.24170        1.61310       -1.82920
N         -0.48057        0.90085       -2.69189
C         -1.20551        1.30429        0.24638
N         -1.51661        2.27801        0.68985
C         -1.94080        0.07252        0.44478
C         -3.20894        0.08995        1.12198
N         -4.23095        0.08823        1.63234
C         -1.50920       -1.14306       -0.22885
N         -2.41574       -2.15713       -0.44399
C         -1.73247       -3.22374       -1.00173
N         -0.38281       -2.91655       -1.06488
C         -0.21012       -1.62838       -0.61690
N          1.08289       -1.23936       -0.26947
C          1.51517        0.01799        0.12183
H          3.91970        2.12722        1.21461
H         -1.17332        3.22914        0.55777
H         -2.43676        2.36561        1.12176
H         -2.19794       -4.18288       -1.27866
