28
Coordinates from ORCA-job ./opt_b97-3c_parallel
N          5.47632       -1.80029        0.81967
C          4.58101       -1.12899        0.58650
C          3.48772       -0.25589        0.26921
C          3.77651        1.10852       -0.03725
N          2.67776        1.16580       -0.18650
C          1.60626        0.86719       -0.17854
C          0.21294        1.24095       -0.30541
C          0.02772        2.63550       -0.57887
N         -0.08151        3.74685       -0.82178
C         -0.91422        0.31294       -0.12443
C         -2.26222        0.76289        0.14592
C         -2.70642        2.08931        0.46983
N         -3.09001        3.12880        0.75123
C         -3.23747       -0.19747        0.28888
N         -4.58210       -0.10023        0.26691
C         -2.40990       -1.27765        0.11013
C         -3.01821       -2.57445        0.17217
N         -3.43090       -3.61387       -0.06463
C         -1.02274       -1.05776       -0.15784
C         -0.08242       -1.99803       -0.48653
C          1.25482       -1.90936       -0.70686
N          1.70559       -1.55091        0.45101
C          2.12271       -0.35626        0.17295
H          4.56306        1.87038       -0.14327
H         -5.16006       -0.87636        0.58469
H         -5.03545        0.76881        0.54573
H         -0.47435       -3.00308       -0.62919
H          1.70147       -2.91480       -0.75307
