25
Coordinates from ORCA-job ./opt_b97-3c_parallel
N         -3.99072        2.22380       -0.70597
C         -3.35885        1.30506       -0.45600
C         -2.54633        0.18057       -0.10574
C         -3.21691       -0.96925        0.42460
C         -2.46315       -2.05042        0.80135
C         -1.24648       -1.48533        0.54022
N         -0.93576       -2.52791       -0.24037
C          0.35315       -2.43811       -0.67231
N          1.63916       -2.02782       -0.86408
C          2.03557       -0.85396       -0.24841
N          3.35890       -0.51207       -0.09957
C          3.42283        0.80564        0.32723
N          4.40531        1.28304        0.50793
C          2.16162        1.34072        0.37452
C          1.28830        0.33195        0.07418
C         -0.09742        0.62801       -0.28844
C         -0.38116        1.99326       -0.62719
N         -0.53999        3.08976       -0.90125
C         -1.21670       -0.18437       -0.05452
H         -4.29931       -0.95815        0.52598
H         -2.66172       -2.56140        1.74253
H          0.08347       -3.38287       -1.16994
H          4.60405        2.27502        0.36129
H          5.27366        0.89005        0.87661
H          1.90257        2.11264        1.09855
