28
Coordinates from ORCA-job ./opt_b97-3c_parallel
N         -3.84289        2.10078       -0.34553
C         -3.08351        1.25591       -0.22027
C         -2.12266        0.20080       -0.10104
C         -2.49090       -1.13297        0.27240
N         -3.44235       -1.64036        0.51898
C         -1.48209       -2.06243        0.30467
C         -0.43723       -1.25195       -0.04784
C          0.88451       -1.80234       -0.30283
C          2.12149       -1.05301       -0.40063
N          3.19927       -1.71314       -0.71064
C          4.06033       -0.82140       -0.38392
C          3.63439        0.31201        0.11857
C          2.16195        0.26592        0.20639
C          1.75736        1.56876        0.65713
C          0.55011        2.00489        0.02436
N          0.11125        2.99462        0.23332
C         -0.11380        1.19010       -0.84308
C         -0.77904        0.11634       -0.32604
H         -3.65844       -2.54289        0.09992
H         -4.15925       -0.98824        0.20578
H         -1.37105       -2.76175        1.13382
H          0.95715       -2.88333       -0.38225
H          5.02687       -1.28080       -0.63994
H          4.34398        1.09042        0.39034
H          2.28541        2.19483        1.37153
H          0.80475        3.73990        0.21250
H         -0.80143        3.44075        0.30957
H         -0.07837        1.36120       -1.91698
