28
Coordinates from ORCA-job ./opt_b97-3c_parallel
N          3.82294        2.19514        0.55041
C          2.75998        1.80893        0.38708
C          1.42994        1.26856        0.17207
C          0.43426        2.24278        0.05316
N          0.64001        3.33937        0.11728
C         -0.93383        2.31040       -0.22212
C         -1.98358        1.32717       -0.19696
C         -3.27138        1.75122       -0.33942
C         -4.07251        0.73767       -0.08015
C         -3.38791       -0.35390        0.20673
C         -2.04086       -0.07530        0.11811
C         -1.07668       -1.08383        0.14905
C         -1.63578       -2.40721        0.34387
N         -1.87578       -3.47856        0.66202
C          0.30614       -1.13027       -0.03278
N          0.95120       -2.35772       -0.15824
C          2.31791       -2.19941       -0.23264
N          3.12408       -2.94426       -0.32629
N          2.55423       -0.84789       -0.12642
C          1.35504       -0.16425       -0.02702
H          1.59188        3.69742        0.19704
H          0.03116        4.14524        0.25628
H         -1.42100        3.27929       -0.41472
H         -3.59698        2.75664       -0.59994
H         -5.15899        0.79563       -0.09334
H         -3.86603       -1.29345        0.47748
H          2.99422       -3.95528       -0.29738
H          4.13084       -2.78491       -0.35636
