27
Coordinates from ORCA-job ./opt_b97-3c_parallel
N         -4.69967       -2.07228       -0.50234
C         -3.95541       -1.21651       -0.36141
C         -2.98052       -0.18143       -0.18776
C         -3.44311        1.09879       -0.14902
N         -2.31369        1.76011        0.03289
C         -1.14952        1.00542        0.08814
C          0.10862        1.70096        0.26900
C          0.00156        3.12754        0.49355
N         -0.05334        4.25738        0.67357
C          1.45552        1.17536        0.07183
N          2.43506        2.05400        0.02758
C          3.53977        1.47201       -0.22353
C          3.38897        0.18799       -0.32029
C          2.06741       -0.08273       -0.09668
C          1.58104       -1.45382        0.07043
C          2.68288       -2.40006        0.07519
N          3.43884       -3.24789       -0.05919
C          0.31073       -2.02088        0.19203
N          0.16330       -3.12055        0.34382
C         -1.00690       -1.59636        0.07172
C         -1.56325       -0.34327       -0.04212
H         -4.39039        1.65734       -0.18049
H          4.44600        2.08641       -0.33103
H          4.19570       -0.50275       -0.55278
H          0.99388       -3.70514        0.43008
H         -0.63035       -3.75406        0.42806
H         -1.79513       -2.35878        0.06760
