24
Coordinates from ORCA-job ./opt_b97-3c_parallel
N         -4.28415       -1.46645        0.70065
C         -3.50800       -0.64739        0.52275
C         -2.49894        0.33946        0.29812
C         -2.70195        1.68203        0.43368
N         -1.52815        2.20654        0.09342
C         -0.53302        1.29934       -0.22837
C          0.69966        1.49508       -0.76363
C          0.88289        1.87117       -1.78801
N          1.65292        2.32275       -2.50112
C          1.49596        1.19179        0.29742
N          2.18328        1.63015        1.04669
N          2.17522        0.08368        0.60241
C          1.94649       -1.12029        0.04411
N          2.90078       -2.10841        0.04387
C          2.30735       -3.26182       -0.44825
N          0.96054       -3.03232       -0.68472
C          0.71671       -1.71114       -0.40488
C         -0.67117       -1.29600       -0.31618
C         -1.15388        0.03919       -0.04632
H         -3.63583        2.19313        0.71449
H          3.12995        1.83973        1.36051
H          1.68391        2.51975        1.03656
H          2.63819       -4.29571       -0.63554
H         -1.41266       -2.08577       -0.40230
