25
Coordinates from ORCA-job ./opt_b97-3c_parallel
N         -3.94024       -2.86349        0.00795
C         -3.09490       -2.09452        0.00528
C         -2.00293       -1.16309        0.00217
C         -0.73753       -1.83338        0.00539
N          0.59498       -1.48115        0.00427
C          1.28529       -0.28751        0.00004
C          2.70714       -0.40133        0.00081
C          3.50879       -1.58612        0.00508
N          4.18853       -2.50338        0.00837
C          3.20378        0.93584       -0.00343
N          4.18215        1.45201       -0.00480
N          2.12132        1.79959       -0.00673
C          0.99702        1.05411       -0.00462
C         -0.18004        1.76706       -0.00754
C         -1.55909        1.36472       -0.00705
N         -2.43360        2.43045       -0.01154
C         -3.67116        1.97062       -0.01087
C         -3.56765        0.64851       -0.00599
C         -2.27623        0.20051       -0.00330
H         -0.61018       -2.92753        0.00960
H          4.55438        2.40162       -0.00716
H          4.99508        0.83298       -0.00238
H         -0.07371        2.85080       -0.01125
H         -4.58437        2.58536       -0.01390
H         -4.45710        0.02226       -0.00461
