26
Coordinates from ORCA-job ./opt_b97-3c_parallel
N          2.51832       -3.58159        0.10407
C          2.54063       -2.43959        0.05694
C          2.53429       -1.01281       -0.01648
C          3.73988       -0.25600       -0.15075
C          3.64092        1.10938       -0.19961
C          2.27876        1.15214       -0.08363
N          1.86056        2.44044       -0.05300
C          0.61085        3.07483        0.01783
C         -0.80616        2.76187        0.00587
C         -1.42371        1.46919       -0.00873
C         -2.83852        1.32199       -0.05640
C         -3.29036        0.02644       -0.05079
N         -4.60280       -0.23856       -0.16386
C         -2.05501       -0.57386        0.03119
C         -2.09987       -2.00364        0.09002
N         -2.29471       -3.13003        0.12604
C         -0.88238        0.24650        0.06601
N          0.29698       -0.21791        0.18812
C          1.55437       -0.06910        0.03472
H          4.69334       -0.77399       -0.19327
H          4.28081        1.73083        0.42350
H          0.81344        4.15626        0.01787
H         -1.47571        3.61636        0.00223
H         -3.48631        2.19323       -0.09008
H         -4.94556       -1.17966        0.02203
H         -5.29445        0.42281        0.18286
