25
Coordinates from ORCA-job ./opt_b97-3c_parallel
N          4.98307       -0.65018        0.89359
C          4.09492       -0.02014        0.55038
C          2.94701        0.72167        0.13318
C          2.89656        2.04885       -0.17025
C          1.65824        2.39209       -0.50290
C          0.83810        1.30536       -0.42618
N         -0.52249        1.59164       -0.25417
C         -1.62753        0.75454       -0.11558
N         -2.89993        1.14156        0.24561
C         -3.75606        0.05347        0.16243
N         -4.81421        0.23493        0.43710
N         -2.99624       -1.01565       -0.29835
C         -1.68984       -0.61349       -0.49109
N         -0.69494       -1.27267       -0.98034
C          0.19793       -1.87588       -0.27132
N          0.00740       -2.96076       -0.20805
C          1.37531       -1.23549        0.23538
C          1.63643        0.16595       -0.02882
H          3.74905        2.72553       -0.15144
H          1.35474        3.39537       -0.79778
H         -5.38719        1.07644        0.32953
H         -5.46208       -0.46679        0.80491
H          0.98986       -3.23859       -0.18359
H         -0.50588       -3.82741       -0.37708
H          2.15633       -1.85815        0.66767
