30
Coordinates from ORCA-job ./opt_b97-3c_parallel
N          5.07225        1.95880        1.42253
C          4.31871        1.17889        1.06217
C          3.36182        0.22875        0.58052
C          3.80020       -1.02006        0.25428
N          2.74146       -1.58846       -0.30288
C          1.62615       -0.76486       -0.32657
C          0.35212       -1.32302       -0.71588
C          0.35875       -2.61403       -1.34767
N          0.37175       -3.62342       -1.88420
C         -0.80766       -0.84783        0.00799
C         -1.89642       -1.70727        0.40335
C         -1.91634       -3.13141        0.55696
N         -1.96036       -4.26336        0.70711
C         -3.04158       -1.11253        0.85892
C         -2.69171        0.16265        0.48708
C         -3.97630        0.74462        0.76236
N         -4.30024        1.54449        1.51220
C         -1.34850        0.39950        0.02559
C         -0.94265        1.62137       -0.48377
C         -1.99859        2.50782       -0.91528
N         -2.80991        3.22294       -1.28519
C          0.31060        2.22599       -0.50334
N          0.58837        3.27013       -0.77205
C          1.50560        1.77702        0.19110
C          1.99529        0.48328        0.24606
H          4.75543       -1.56027        0.33632
H         -3.40280       -1.34664        1.86308
H          1.42728        3.80293       -0.99614
H         -0.20336        3.87487       -0.98813
H          2.23073        2.53718        0.49395
