23
Coordinates from ORCA-job ./opt_b97-3c_parallel
N         -5.25807       -0.33228       -0.82113
C         -4.31709        0.07232       -0.31435
C         -3.10556        0.53439        0.29875
C         -2.99026        1.79011       -0.21623
N         -1.69776        1.58965       -0.09955
C         -0.61948        0.80135        0.26150
C          0.75426        0.90771        0.19388
C          1.05656        1.97789        0.22634
N          1.60728        2.70227        0.91973
C          1.51092       -0.19831        0.07987
C          2.87177       -0.14512       -0.05915
C          4.08593        0.57725       -0.26960
N          5.04284        1.16662       -0.46860
C          3.28108       -1.38527       -0.44902
N          2.17679       -2.06379       -0.23245
C          0.99980       -1.46135        0.15005
N          0.21641       -2.59016        0.29401
C         -1.10114       -2.27889        0.56952
N         -1.74059       -1.15449        0.53476
C         -1.80556        0.13711        0.44034
H         -3.41639        2.71897       -0.62605
H          4.11494       -2.02112       -0.78759
H         -1.86049       -3.06010        0.73408
