27
Coordinates from ORCA-job ./opt_b97-3c_parallel
N         -3.59296        2.37645        0.10955
C         -2.92772        1.44764        0.07905
C         -2.12617        0.26052        0.05504
C         -2.71569       -1.02975        0.30745
N         -3.73806       -1.37679        0.54968
C         -1.89600       -2.13769        0.26548
C         -0.73280       -1.49029       -0.04528
C          0.27904       -2.26479       -0.51808
C          1.34869       -2.65516        0.22127
C          2.60822       -1.95906        0.27735
C          2.80284       -0.60608       -0.21216
N          4.03890       -0.19340       -0.18327
C          3.69435        0.96555        0.23021
C          2.42833        1.30127        0.21247
C          1.60120        0.21516       -0.38291
C          0.27287        0.79088       -0.53764
C         -0.02663        2.12389       -0.97647
N         -0.08642        3.20833       -1.33426
C         -0.81944       -0.07784       -0.14954
H         -4.23573       -0.49544        0.43590
H         -4.41473       -2.12029        0.38863
H         -2.18223       -3.04932       -0.26163
H          0.23509       -2.58406       -1.55695
H          1.35502       -3.65750        0.63731
H          3.46345       -2.49982        0.67316
H          4.49256        1.65390        0.54646
H          2.15664        2.30652        0.52905
