30
Coordinates from ORCA-job ./opt_b97-3c_parallel
N          4.86867       -0.33496       -1.60168
C          3.91018       -0.72520       -1.11729
C          2.73185       -1.25610       -0.50656
C          2.48886       -2.57488       -0.26470
C          1.30650       -2.72346        0.32509
C          0.71364       -1.50974        0.50253
N         -0.43604       -1.26583        1.04699
C         -1.51997       -0.79387        0.51946
C         -2.69775       -1.59351        0.42300
C         -3.70391       -0.91297       -0.18512
N         -4.95783       -1.31124       -0.44467
C         -3.21394        0.28073       -0.49063
C         -1.92038        0.38366       -0.06677
C         -1.00232        1.48955       -0.15026
C         -1.33156        2.71619       -0.81186
N         -1.97895        3.59032       -1.16337
C          0.25459        1.54063        0.38762
N          0.25324        2.00305        1.65231
C          1.37802        0.91477       -0.07726
C          2.27579        1.88335       -0.63024
N          2.98254        2.68047       -1.04499
C          1.59968       -0.51728       -0.03107
H          3.16186       -3.38893       -0.52328
H          0.87302       -3.67704        0.61747
H         -2.74655       -2.61555        0.78642
H         -5.36424       -2.08704        0.07503
H         -5.69083       -0.62168       -0.60104
H         -3.77017        1.07308       -0.98607
H         -0.50573        2.60439        1.96865
H          1.11595        2.35268        2.06563
