29
Coordinates from ORCA-job ./opt_b97-3c_parallel
N         -4.42931        0.81824        1.93232
C         -3.58560        1.02862        1.19146
C         -2.53021        1.33399        0.27620
C         -2.57039        2.36958       -0.60916
C         -1.51246        2.32426       -1.41362
C         -0.71498        1.27757       -1.05918
N          0.63336        1.60547       -1.04372
C          1.59002        1.05027       -0.19661
N          2.76876        1.70492        0.07955
C          3.63938        0.81393        0.69081
N          4.63969        1.21772        0.93926
C          3.03598       -0.41297        0.78945
C          1.79752       -0.30405        0.22114
C          1.16808       -1.37975       -0.51778
C          1.98925       -2.48082       -0.95045
N          2.68096       -3.33208       -1.26654
C         -0.28697       -1.45411       -0.54112
N         -0.73340       -2.39495       -0.92470
C         -0.96870       -0.72495        0.50926
C         -1.77031       -1.41480        1.48014
N         -2.36848       -1.98813        2.26532
C         -1.32271        0.59194        0.03118
H         -3.36950        3.10636       -0.67046
H         -1.31602        3.02570       -2.22288
H          5.39167        0.63623        1.31498
H          5.05393        2.14546        0.82925
H          3.60202       -1.34213        0.84182
H         -1.72381       -2.61420       -0.81584
H         -0.30539       -3.22515       -1.33520
