24
Coordinates from ORCA-job ./opt_b97-3c_parallel
N          2.89691        3.27805       -0.10158
C          2.66572        2.15893       -0.09069
C          2.41462        0.75294       -0.06323
C          3.46144       -0.19424        0.17199
C          3.14554       -1.52758        0.17355
C          1.81159       -1.34789       -0.06084
N          1.10104       -2.50072       -0.12100
C         -0.26975       -2.41058       -0.24979
N         -1.51633       -2.08397       -0.36554
C         -1.84350       -0.83822       -0.21919
C         -3.18678       -0.46098        0.07426
C         -3.29705        0.88688        0.18577
N         -4.38260        1.63034        0.44839
C         -2.08064        1.37169       -0.02178
C         -1.18487        0.37007       -0.26162
N          0.08785        0.37248       -0.48008
C          1.29801       -0.00911       -0.22591
H          4.47327        0.16224        0.33849
H          3.49091       -2.17651        0.97467
H         -0.45798       -3.49425       -0.28057
H         -3.99018       -1.18144        0.19208
H         -4.43121        2.59648        0.13062
H         -5.31308        1.22430        0.36920
H         -1.82404        2.42851       -0.00439
