27
Coordinates from ORCA-job ./opt_b97-3c_parallel
N          5.39796        1.72223        0.00639
C          4.47888        1.04270        0.01407
C          3.30130        0.21975        0.00751
C          3.57176       -1.18304        0.00061
N          2.52143       -1.46725       -0.00316
C          1.57060       -0.92110       -0.00014
C          0.22681       -1.45062       -0.00049
C          0.10895       -2.88585       -0.00415
N         -0.00916       -4.02295        0.01230
C         -0.97544       -0.62137        0.00196
C         -2.25772       -1.28387        0.00172
C         -3.38374       -0.50355       -0.00561
N         -4.57621       -1.10840       -0.15908
C         -2.72144        0.69457        0.01210
C         -3.72511        1.72019        0.02571
N         -4.49199        2.56863        0.03671
C         -1.29119        0.71704        0.00898
N         -0.83106        1.98554        0.01328
C          0.44453        2.51500        0.00125
C          1.73147        1.90781       -0.01319
C          1.85742        0.48013        0.00394
H          4.51925       -1.74309       -0.00030
H         -2.33916       -2.36578        0.00466
H         -4.71556       -2.07029        0.14346
H         -5.43370       -0.58979        0.02506
H          0.32528        3.60854       -0.00237
H          2.55189        2.61650       -0.02645
