28
Coordinates from ORCA-job ./opt_b97-3c_parallel
N          4.08638       -3.06654        0.02737
C          3.15657       -2.40310        0.03485
C          2.02162       -1.52643        0.04090
C          0.77067       -2.22445        0.09598
N         -0.57648       -1.92689        0.07464
C         -1.33038       -0.76936        0.03450
C         -2.69954       -0.92059        0.00575
C         -3.47573       -2.12771       -0.01037
N         -4.15383       -3.02990       -0.18967
C         -3.29373        0.38965       -0.00421
N         -4.37097        0.64801       -0.02929
C         -2.28232        1.32592        0.02699
C         -2.36771        2.76003        0.03847
N         -2.39563        3.90225        0.05380
C         -1.02642        0.62433        0.04582
N          0.12843        1.38169        0.06069
C          1.40661        0.99830        0.02992
C          2.25678        2.13981        0.00041
C          3.59660        1.65799       -0.05088
N          4.64066        2.01643       -0.09450
N          3.56802        0.31800       -0.04421
C          2.23631       -0.09521        0.00497
H          0.57132       -3.30703        0.13027
H         -4.85967        1.54224       -0.04472
H         -5.08406       -0.07484       -0.12181
H          1.94753        3.18186        0.00679
H          5.52998        1.52311       -0.17785
H          4.87103        3.01025       -0.09262
