29
Coordinates from ORCA-job ./opt_b97-3c_parallel
N          5.25622        0.88534        1.07248
C          4.16404        1.11585        0.82799
C          2.79611        1.37743        0.48797
C          2.45394        2.67954        0.27988
N          1.21503        2.56569       -0.16979
C          0.71777        1.27165       -0.21785
C         -0.65552        1.07216       -0.62674
C         -1.30563        2.20204       -1.23686
N         -1.78898        3.10630       -1.74377
C         -1.43650       -0.01075       -0.05138
C         -2.84852        0.14550        0.22142
C         -3.67255        1.31349        0.32307
N         -4.35573        2.22329        0.43334
C         -3.34770       -1.03933        0.62349
C         -2.36475       -1.91738        0.60300
C         -1.17969       -1.35588        0.16934
C         -0.12892       -2.18604       -0.21776
C         -0.46132       -3.58749       -0.39951
N         -0.70104       -4.69948       -0.51553
C          1.24534       -2.01682       -0.38859
N          2.04741       -2.74839       -0.65244
C          2.08572       -0.92138        0.07100
C          1.77005        0.41617        0.20831
H          2.91448        3.67770        0.33123
H         -4.37069       -1.23272        0.94096
H         -2.50485       -2.94191        0.94191
H          1.70504       -3.70283       -0.75584
H          3.06047       -2.79722       -0.74692
H          3.15124       -1.12045        0.22691
