24
Coordinates from ORCA-job ./opt_b97-3c_parallel
N         -4.71468       -0.73570       -0.12578
C         -3.73613       -0.14761       -0.07492
C         -2.47476        0.52487       -0.00448
C         -2.32369        1.80452        0.60830
N         -1.29730        1.47641        0.32151
C         -0.29856        1.15485       -0.06686
C          1.07606        1.26844       -0.20687
C          1.25966        2.33260       -0.47717
N          1.69548        2.84625       -1.40213
C          1.93281        0.27385        0.09965
C          3.25369        0.41301        0.20150
C          4.00120       -0.61944        0.56304
N          2.83892       -1.23631        0.56136
C          1.50119       -0.99998        0.32719
N          0.74445       -2.15976        0.31881
C         -0.45154       -2.00997       -0.36658
N         -1.02598       -2.95130       -0.45060
N         -0.92213       -0.98959       -1.01658
C         -1.24202        0.12806       -0.43542
H         -2.93206        2.57478        1.10743
H          3.73545        1.37547        0.03128
H          5.08057       -0.75706        0.73590
H         -0.65051       -3.89512       -0.55937
H         -2.02125       -3.03460       -0.66750
