29
Coordinates from ORCA-job ./opt_b97-3c_parallel
N         -0.03825        3.99630        1.45806
C         -0.58781        3.08371        1.04427
C         -1.28790        1.96629        0.47751
C         -2.70005        1.85103        0.66596
N         -2.43326        1.02398       -0.00720
C         -2.00272        0.05193       -0.30399
C         -2.04081       -1.32005       -0.24052
C         -3.07026       -1.74244       -0.25125
N         -4.07987       -2.28048       -0.29635
C         -0.98915       -2.19592       -0.13213
N         -0.60191       -3.13555       -0.58056
N         -0.00624       -1.83554        0.63748
C          1.08771       -1.17277        0.40811
C          2.33096       -1.78562        0.74251
C          3.38312       -1.04130        0.31785
N          4.69529       -1.28807        0.43265
C          2.86137        0.02024       -0.27700
C          1.49619       -0.01114       -0.21711
C          0.56245        0.93116       -0.79507
C          0.95794        2.02199       -1.63283
N          1.58725        2.87791       -2.05416
C         -0.80830        0.86616       -0.33088
H         -3.45324        2.44979        1.19994
H          0.09595       -3.87310       -0.64613
H         -1.45336       -3.49215       -1.01054
H          2.39590       -2.76700        1.20568
H          5.03296       -1.96005        1.11857
H          5.36666       -0.52391        0.38199
H          3.44233        0.82048       -0.73092
