29
Coordinates from ORCA-job ./opt_b97-3c_parallel
N          2.22577       -3.29480        0.45737
C          2.18596       -2.15532        0.37646
C          2.15823       -0.72324        0.23388
C          3.39387       -0.00732        0.15535
N          4.47147       -0.25682        0.19880
C          3.27964        1.34437       -0.02554
C          1.91717        1.48420       -0.01789
C          1.30420        2.76620       -0.30980
C         -0.10206        3.06412       -0.15626
C         -1.00376        2.35592        0.58005
C         -1.69661        1.26829        0.15200
C         -3.09072        1.08802       -0.07362
C         -3.47830       -0.19048       -0.39355
N         -4.79006       -0.47617       -0.34350
C         -2.23086       -0.76848       -0.34033
C         -2.18911       -2.17862       -0.59102
N         -2.27330       -3.25566       -0.21961
C         -1.11693        0.06288       -0.01023
N          0.10159       -0.32878        0.11841
C          1.23758        0.29094        0.11396
H          4.40217       -1.27310        0.18495
H          5.45538       -0.02577        0.07775
H          3.88483        1.88626       -0.75306
H          1.95006        3.57249       -0.64404
H         -0.38180        4.06502       -0.46942
H         -1.21955        2.71847        1.58191
H         -3.77658        1.92120        0.04831
H         -5.43551        0.16489        0.11345
H         -5.09098       -1.42544       -0.12956
