28
Coordinates from ORCA-job ./opt_b97-3c_parallel
N         -4.69918        2.57062       -0.41339
C         -4.02931        1.64551       -0.43528
C         -3.15751        0.51141       -0.47974
C         -3.65113       -0.82839       -0.51769
N         -2.57173       -1.05620       -0.55534
C         -1.60012       -0.86620       -0.06307
C         -0.54603       -1.34716        0.66356
C         -0.67374       -1.68264        1.71226
N         -0.83506       -2.23695        2.69934
C          0.71256       -1.43165        0.13228
N          1.43072       -2.52843       -0.32421
C          2.66428       -2.27306       -0.74841
C          2.79841       -0.92741       -0.57284
C          4.00342       -0.25409       -0.94608
N          4.97812        0.25286       -1.26058
C          1.61465       -0.34196       -0.04299
C          1.36203        1.05889        0.23737
C          2.30288        2.12805        0.09257
N          3.03643        3.00046        0.00365
C          0.16079        1.57759        0.63167
N         -0.42893        2.27718        1.61540
C         -0.79172        1.58481       -0.34556
C         -1.72424        0.50069       -0.49628
H         -4.69815       -1.16767       -0.51481
H          3.39571       -2.99046       -1.15087
H         -1.29617        2.78025        1.43336
H          0.13795        2.86067        2.22905
H         -0.79281        2.39458       -1.06938
