27
Coordinates from ORCA-job ./opt_b97-3c_parallel
N          4.75958        0.23272       -1.11949
C          3.77975       -0.27539       -0.82490
C          2.57031       -0.95072       -0.47252
C          2.43316       -2.27957       -0.74777
N          1.19184       -2.52138       -0.34454
C          0.46438       -1.46366        0.19418
C         -0.79369       -1.49743        0.77002
C         -0.87384       -2.28330        1.55297
N         -0.99542       -3.07649        2.36855
C         -1.86114       -0.85043        0.27207
N         -3.16321       -1.02741        0.46873
C         -3.79709       -0.37220       -0.50552
N         -2.95390        0.38407       -1.26476
C         -1.74981        0.16813       -0.64166
C         -0.92071        1.34017       -0.48765
C         -1.03254        2.51597       -1.30140
N         -1.09261        3.46565       -1.93515
C         -0.11076        1.50215        0.60462
N         -0.58442        2.02664        1.74911
C          1.13701        1.00830        0.37336
C          2.08985        2.07304        0.26951
N          2.83457        2.93818        0.21828
C          1.38616       -0.38244        0.08154
H          3.12267       -3.01509       -1.18945
H         -4.89162       -0.46665       -0.57518
H         -1.40853        2.62578        1.72081
H          0.06465        2.44543        2.41406
