24
Coordinates from ORCA-job ./opt_b97-3c_parallel
N          3.91566        2.23703       -0.76595
C          3.32087        1.31171       -0.45968
C          2.53609        0.17614       -0.08286
C          3.23561       -0.98635        0.37753
C          2.49916       -2.07887        0.75677
C          1.26733       -1.52002        0.55764
N          0.98929       -2.53814       -0.26853
C         -0.31858       -2.49775       -0.64666
N         -1.62865       -2.14598       -0.78444
C         -2.05083       -0.97098       -0.18842
N         -3.38653       -0.66656       -0.03985
C         -3.51460        0.65548        0.36160
N         -4.30957        1.38277        0.60668
N         -2.24689        1.21104        0.39511
C         -1.31632        0.23054        0.10385
C          0.08000        0.61842       -0.09741
C          0.34170        2.02202       -0.24539
N          0.48628        3.14824       -0.36440
C          1.21288       -0.19775        0.01500
H          4.32159       -0.97760        0.42012
H          2.73636       -2.60737        1.67893
H          0.05267       -3.41363       -1.13633
H         -5.26464        1.13947        0.87608
H         -4.27896        2.40413        0.61738
