23
Coordinates from ORCA-job ./opt_b97-3c_parallel
N         -4.65355       -2.31362       -0.86564
C         -3.96445       -1.50217       -0.44990
C         -3.06883       -0.50713        0.05480
C         -3.52349        0.66394       -0.46868
N         -2.45382        1.42222       -0.39821
C         -1.21255        1.06190        0.08619
C          0.00234        1.66461        0.26706
C          0.01084        2.54375        0.93936
N          0.01794        3.58131        1.42212
C          1.21380        1.06576        0.05134
N          2.43931        1.42727       -0.47079
C          3.49762        0.65157       -0.51302
C          3.09041       -0.49403        0.09889
C          3.98369       -1.48867       -0.41050
N          4.67166       -2.29876       -0.83199
C          1.78166       -0.15633        0.27272
N          1.06801       -1.20738        0.62456
C         -0.02617       -1.91896        0.91461
N         -1.05515       -1.19647        0.60883
C         -1.76991       -0.16824        0.28796
H         -4.36489        1.23366       -0.89058
H          4.32527        1.21577       -0.96874
H         -0.04776       -2.97920        1.20906
