26
Coordinates from ORCA-job ./opt_b97-3c_parallel
N          3.68908       -1.72985       -0.83517
C          3.61289       -1.00987        0.05023
C          2.53808       -0.06332        0.12483
C          2.70168        1.30427        0.09738
N          3.55543        2.00109        0.01251
C          1.53059        2.01722        0.18699
C          0.55801        1.05558        0.15550
C         -0.83425        1.48436        0.09327
C         -2.05256        0.81823       -0.02273
N         -3.07453        1.63456       -0.12479
C         -4.13263        0.90908       -0.25585
C         -3.90126       -0.37755       -0.23136
C         -2.56607       -0.47374       -0.07460
N         -2.04769       -1.70048        0.01516
C         -0.69293       -1.64496        0.11144
N         -0.58018       -2.74424        0.21053
N          0.65525       -1.52023        0.20395
C          1.12990       -0.26490        0.17546
H          4.30877        1.60028       -0.54558
H          3.82347        2.96600        0.20343
H          1.43541        2.86806        0.86371
H         -0.91347        2.57047        0.10308
H         -5.08701        1.44502       -0.37456
H         -4.62711       -1.18173       -0.33518
H         -1.34122       -3.37254        0.46909
H          0.25014       -3.33832        0.20371
