26
Coordinates from ORCA-job ./opt_b97-3c_parallel
N         -3.88283       -2.91993       -0.03805
C         -3.05072       -2.13654       -0.04153
C         -1.98858       -1.17414       -0.01871
C         -0.70961       -1.80639        0.03789
N          0.61738       -1.46217        0.06963
C          1.32507       -0.28565        0.01250
C          2.68672       -0.41587        0.02687
C          3.57370       -1.53937        0.09967
N          4.44011       -2.27893       -0.00126
C          3.12859        0.93510       -0.06357
N          4.12971        1.40587       -0.10427
C          2.16490        1.89985       -0.13724
C          1.03730        1.11479       -0.08056
C         -0.21022        1.82812       -0.07510
C         -1.60490        1.47264       -0.01210
N         -2.41483        2.50088        0.00361
C         -3.58335        1.94948        0.00836
C         -3.62698        0.63722        0.00049
C         -2.33614        0.22988       -0.00694
H         -0.42664       -2.86955        0.06812
H          4.79399        0.63595       -0.03611
H          4.66732        2.26648       -0.01949
H          2.22929        2.82225        0.44107
H         -0.06307        2.90562       -0.11457
H         -4.50947        2.54366        0.01789
H         -4.52923        0.02980        0.00132
