25
Coordinates from ORCA-job ./opt_b97-3c_parallel
N         -4.21675        2.46413        0.01171
C         -3.71627        1.43770       -0.03764
C         -3.11910        0.13786       -0.07195
C         -3.79286       -1.03471       -0.21530
C         -2.92991       -2.03509       -0.17704
C         -1.67828       -1.53280       -0.00728
N         -0.58531       -2.22526        0.09331
C          0.69294       -2.01707        0.07997
C          1.71431       -1.09366        0.05218
C          2.87035       -1.93390        0.02720
N          3.80970       -2.21243        0.61725
C          1.49472        0.27035        0.03405
C          2.42371        1.27910       -0.04493
C          3.84698        1.37534       -0.14043
N          4.65814        1.14015       -0.91060
C          1.72708        2.45428       -0.03521
C          0.42202        2.22844        0.05317
C          0.20360        0.88584        0.10277
N         -0.86787        0.62047        0.18521
C         -1.70667       -0.09398        0.06056
H         -4.86743       -1.13307       -0.34921
H         -3.18014       -3.08877       -0.27469
H          0.50799       -3.10224        0.09713
H          2.17470        3.44391       -0.09752
H         -0.34149        3.00591        0.07470
