29
Coordinates from ORCA-job ./opt_b97-3c_parallel
N         -4.73788       -2.08419        0.27045
C         -3.85476       -1.49186       -0.14858
C         -2.72966       -0.75298       -0.63398
C         -2.84016       -0.02922       -1.78097
N         -2.21348        1.06386       -1.40507
C         -1.70186        0.85656       -0.13770
C         -0.98493        1.78831        0.55812
C         -1.68413        2.45127        1.11367
N         -2.14905        3.43857        1.45696
C          0.34511        1.64977        0.59421
N          1.16557        2.35917        1.40110
C          1.00402        0.76509       -0.23332
C          1.75264        1.47161       -1.23459
N          2.36494        2.04919       -2.00769
C          1.15160       -0.66236       -0.02315
C          2.18868       -1.41982       -0.51940
C          3.36887       -1.35711       -1.33062
N          4.46527       -1.03694       -1.28414
C          2.07699       -2.66111        0.05571
C          1.03674       -2.72018        0.87998
C          0.39047       -1.53165        0.82576
C         -0.97709       -1.32790        1.23995
C         -1.76361       -0.47422        0.38985
H         -3.40346       -0.39344       -2.65347
H          0.83505        3.22565        1.82281
H          2.14356        2.48810        1.14763
H          2.76009       -3.49306       -0.11230
H          0.73182       -3.58881        1.45901
H         -1.44183       -2.11990        1.81912
