26
Coordinates from ORCA-job ./opt_b97-3c_parallel
N          3.34850        1.82547        1.51399
C          2.43263        1.34468        1.02674
C          1.30295        0.74181        0.37425
C          0.24294        1.57767       -0.13084
N          0.16535        2.68226       -0.01776
C         -0.68716        1.12916       -1.01482
C         -1.75609        0.75056       -0.27144
C         -2.94804        1.37667       -0.06260
C         -3.78048        0.50793        0.49966
C         -3.19896       -0.66491        0.70271
C         -1.91819       -0.55347        0.26539
C         -1.02876       -1.65258       -0.00435
C          0.37645       -1.63178       -0.38111
N          0.91720       -2.78848       -0.66360
C          2.17995       -2.55177       -0.48623
C          2.54179       -1.33317       -0.14074
C          1.39164       -0.63281       -0.08903
H         -0.51061        3.26541        0.47209
H          1.07798        3.11647        0.10965
H         -0.79388        1.53271       -2.02071
H         -3.18489        2.40296       -0.33199
H         -4.81212        0.73149        0.75965
H         -3.65845       -1.54666        1.14471
H         -1.47819       -2.63789        0.08197
H          2.76986       -3.46233       -0.66971
H          3.55466       -0.97578        0.02949
