26
Coordinates from ORCA-job ./opt_b97-3c_parallel
N          5.36899        0.21021        0.63066
C          4.30610        0.57222        0.41687
C          2.96488        0.99587        0.16964
C          2.57131        2.36850        0.24507
C          1.25979        2.67331       -0.00843
C          0.86600        1.38650       -0.24991
N         -0.35489        1.09836       -0.55085
C         -1.43471        0.49851       -0.17785
C         -2.61654        1.16746       -0.01688
C         -3.00919        2.53348       -0.16607
N         -3.35049        3.61549       -0.30487
C         -3.57232        0.18375        0.35625
N         -2.97038       -1.05601        0.40515
C         -1.66693       -0.90604        0.08770
C         -0.75401       -1.96945        0.00535
C         -1.30894       -3.27659        0.21479
N         -1.71854       -4.33297        0.37040
C          0.66909       -1.90420       -0.26342
N          1.57750       -2.51782       -0.39134
N          1.44993       -0.87949       -0.37716
C          1.81986        0.33931       -0.15951
H          3.30909        3.12340        0.49922
H          0.99872        3.47734       -0.69275
H         -4.62459       -0.00118        0.61860
H          0.96764       -3.28452       -0.66788
H          2.51054       -2.74453       -0.72968
