26
Coordinates from ORCA-job ./opt_b97-3c_parallel
N          0.39901        4.47906       -0.25158
C          0.46390        3.35121       -0.08147
C          0.87660        1.98002       -0.02804
C          2.28582        1.92898       -0.27350
N          2.61977        0.88193       -0.26398
C          1.51065        0.14608       -0.06323
C          1.56880       -1.27076        0.05894
C          2.91283       -1.83115        0.09661
N          3.96121       -2.28622        0.12413
C          0.49316       -2.21023        0.08743
N          0.82390       -3.54107        0.21122
C         -0.89784       -2.06625       -0.10315
C         -1.72780       -0.93635       -0.18012
N         -3.04099       -1.02181       -0.43330
C         -3.09601        0.06110       -0.15961
N         -4.46017        0.15832       -0.18671
N         -2.67919        1.04977        0.15904
C         -1.48304        0.44703        0.21470
N         -0.51919        0.67852        1.11709
C          0.32899        1.02847        0.14017
H          2.99397        2.72937       -0.45900
H          0.11730       -4.24708        0.03602
H          1.80006       -3.81464        0.15619
H         -1.44157       -3.00358       -0.21973
H         -4.90842        0.99451        0.17006
H         -5.02170       -0.68175       -0.27289
