29
Coordinates from ORCA-job ./opt_b97-3c_parallel
N         -2.80441       -3.67170        0.02308
C         -2.24746       -2.67409        0.02731
C         -1.55867       -1.40241        0.03192
C         -0.16058       -1.69708        0.08397
N          0.80400       -1.21026       -0.08458
C          1.68389       -0.20518       -0.01307
C          2.78200       -0.32420       -0.02013
C          3.79718       -1.33522       -0.00035
N          4.74533       -1.97470        0.01616
C          3.38489        0.98004       -0.02953
N          4.57631        1.65041       -0.07609
C          2.14326        1.69679        0.02213
C          1.15721        1.19407        0.01436
C         -0.18681        1.61886        0.01743
C         -1.54964        1.22781        0.01268
C         -2.39279        1.95028        0.01227
C         -3.72207        1.42877       -0.00341
N         -5.00484        1.89271       -0.00226
C         -3.28252        0.07033       -0.01439
C         -2.19423       -0.14438        0.00709
H          0.33766       -2.65969        0.03534
H          5.43298        1.12016        0.04740
H          4.59408        2.64375        0.12642
H          2.09746        2.78262        0.03623
H         -0.14365        2.70779        0.02660
H         -2.23088        3.02508        0.02483
H         -5.16983        2.87827       -0.17419
H         -5.75943        1.24069       -0.18660
H         -4.00627       -0.73972       -0.01551
