30
Coordinates from ORCA-job ./opt_b97-3c_parallel
N          1.39152        4.27081        0.24276
C          0.60823        3.44128        0.30895
C         -0.40452        2.43402        0.39798
C         -1.45744        2.52477        1.35641
N         -1.73435        1.55787        0.88229
C         -1.82903        0.70007        0.17078
C         -2.44790       -0.38339       -0.40521
C         -3.38606       -0.02177       -0.88014
N         -4.49966        0.04474       -1.13683
C         -1.86272       -1.59125       -0.43260
N         -2.33818       -2.65288       -1.12316
C         -0.69039       -1.87880        0.23422
C         -0.81471       -2.89978        1.23600
N         -0.88222       -3.72333        2.02566
C          0.59999       -1.30227       -0.07026
C          1.84707       -1.74202        0.45650
C          2.92852       -1.00744        0.04521
N          4.11916       -1.61973        0.14673
C          2.29526       -0.00635       -0.65597
C          3.03895        1.12694       -1.11344
N          3.64953        2.03329       -1.44797
C          0.87497       -0.12910       -0.81721
N          0.04372        0.74580       -1.29877
C         -0.61898        1.29728       -0.32455
H         -1.60482        3.32871        2.09312
H         -3.30556       -2.65895       -1.44214
H         -2.09388       -3.59957       -0.83876
H          1.91123       -2.60690        1.11075
H          4.97865       -1.09791       -0.01696
H          4.29286       -2.29114        0.89238
