29
Coordinates from ORCA-job ./opt_b97-3c_parallel
N          0.32690       -4.55428        0.35983
C         -0.36063       -3.64229        0.33159
C         -1.17823       -2.46906        0.27087
C         -2.52967       -2.63212        0.19368
N         -2.96661       -1.39654        0.00677
C         -1.97445       -0.43291        0.00749
C         -2.36279        0.94600       -0.25127
C         -3.71293        1.26846       -0.62217
N         -4.78880        1.55194       -0.88114
C         -1.44422        2.01906        0.00570
N         -1.52546        3.12313       -0.07106
C         -0.31376        1.85319        0.73000
C          0.87277        1.66169        0.10913
N          2.14264        1.84893       -0.10568
C          3.39329        1.52740       -0.25609
N          4.18655        2.29601       -0.32337
C          2.72745        0.32497       -0.21094
C          3.75730       -0.66907       -0.32235
N          4.60209       -1.43434       -0.38060
C          1.37358        0.39847       -0.02715
C          0.65800       -0.85414        0.12212
C         -0.71487       -1.11717        0.17817
H         -3.25068       -3.46376        0.20858
H         -1.28542        4.10991       -0.16286
H         -2.54263        3.08323       -0.14573
H         -0.34702        1.91161        1.81752
H          4.99932        1.67681       -0.32708
H          4.55709        3.24381       -0.25963
H          1.31009       -1.72098        0.14477
