23
Coordinates from ORCA-job ./opt_b97-3c_parallel
N          3.59885       -2.63640       -0.09626
C          3.01408       -1.65545       -0.04795
C          2.31815       -0.40823        0.01618
C          3.02257        0.83037        0.12095
C          2.29100        1.98489        0.17970
C          1.07041        1.36861        0.11128
N          0.20921        2.39524        0.11028
C         -1.16342        2.47124        0.02406
C         -2.27645        1.57612       -0.01219
C         -2.34179        0.14778        0.01053
C         -3.54208       -0.49644        0.00503
C         -3.31100       -1.80148       -0.01375
C         -2.01348       -2.06581       -0.02176
C         -1.35055       -0.87874       -0.00496
N          0.02275       -0.96803       -0.03844
C          1.00073       -0.05557        0.01313
H          4.10792        0.82692        0.14845
H          2.54881        2.82610       -0.46236
H         -1.44457        3.53485        0.02303
H         -3.23993        2.07568       -0.04124
H         -4.52233       -0.02596        0.01683
H         -4.08925       -2.56051       -0.02070
H         -1.56265       -3.05592       -0.03529
