28
Coordinates from ORCA-job ./opt_b97-3c_parallel
N          2.41414       -3.70764        1.54882
C          1.89727       -2.80931        1.06949
C          1.30127       -1.66724        0.44713
C          0.06899       -1.96327       -0.07223
N         -0.51264       -1.32475       -1.02421
C         -1.38517       -0.55206       -0.48217
C         -2.74960       -0.65335       -0.37164
C         -3.61902       -1.71832       -0.77322
N         -4.76118       -1.71300       -0.83109
C         -3.24634        0.58003        0.17775
N         -4.14197        1.16145        0.47249
N         -2.21672        1.41136        0.41118
C         -1.06316        0.72909        0.04520
C          0.23135        1.40690        0.00029
C          0.19425        2.83094        0.18706
N          0.18183        3.95797        0.36293
C          1.55002        0.80989       -0.29031
N          2.57227        1.57993       -0.51214
C          3.58804        0.80338       -0.26480
N          4.52338        1.39783       -0.28308
C          3.41727       -0.52217        0.04284
C          2.05338       -0.50933        0.01719
H         -0.44585       -2.92349        0.10426
H         -4.56367        2.07916        0.62561
H         -4.92283        0.54093        0.24367
H          4.72595        2.38923       -0.13976
H          5.43176        0.96673       -0.46495
H          3.97580       -1.29539       -0.48424
