30
Coordinates from ORCA-job ./opt_b97-3c_parallel
N         -5.17806        0.01303        1.68132
C         -4.25184        0.45688        1.18111
C         -3.08163        0.96949        0.53828
C         -3.08534        2.17220       -0.10840
N         -1.91567        2.25630       -0.73451
C         -1.14886        1.12145       -0.52981
C          0.26563        1.14396       -0.81699
C          0.81035        2.26806       -1.52269
N          1.28362        3.13721       -2.09300
C          1.11252        0.26422       -0.03936
C          2.43231        0.64389        0.38001
C          3.00002        1.93975        0.58218
N          3.48945        2.95484        0.76632
C          3.13307       -0.58556        0.61665
N          4.09192       -1.04450        0.92185
N          2.31695       -1.65215        0.27472
C          1.13878       -1.10220       -0.07268
C          0.19422       -1.94852       -0.76922
C          0.67611       -3.13004       -1.44528
N          1.38288       -4.02281       -1.54689
C         -1.15194       -1.97307       -0.41648
N         -1.90025       -2.77531       -0.59112
C         -1.74115       -1.15031        0.62122
C         -1.86812        0.25542        0.32767
H         -3.83715        2.97591       -0.13847
H          4.86472       -0.39440        1.07276
H          4.50273       -1.97824        0.95181
H         -1.65223       -3.76192       -0.66768
H         -2.90577       -2.72399       -0.75404
H         -2.59401       -1.54857        1.17467
