25
Coordinates from ORCA-job ./opt_b97-3c_parallel
N          4.18286       -0.13742       -2.19410
C          3.37931       -0.40975       -1.42952
C          2.37121       -0.69525       -0.45484
C          2.42568       -1.86676        0.36446
N          1.50326       -1.46542        0.81603
C          0.55340       -0.99942        0.51156
C         -0.86104       -1.25296        0.30358
C         -1.32266       -2.58576        0.54873
N         -1.72925       -3.63657        0.73010
C         -1.82018       -0.25394       -0.16176
C         -3.10159       -0.50215       -0.52125
C         -3.75674        0.62741       -0.76969
N         -2.91812        1.63453       -0.54693
C         -1.67893        1.16495       -0.15270
N         -0.70444        1.89366        0.28382
C          0.50531        2.31445        0.45906
N          0.37468        3.37106        0.74047
C          1.61858        1.43478        0.28629
C          1.22546        0.10766       -0.11715
H          3.17146       -2.67643        0.37359
H         -3.54634       -1.49122       -0.61444
H         -4.80879        0.71094       -1.08441
H          1.35665        3.57599        0.92163
H         -0.10446        4.27038        0.71610
H          2.63505        1.77934        0.45711
