23
Coordinates from ORCA-job ./opt_b97-3c_parallel
N          4.35533       -1.72313       -0.00072
C          3.26034       -1.39358       -0.00087
C          1.89380       -0.93544       -0.00117
C          1.16766       -2.11771       -0.00262
C         -0.23078       -2.41093       -0.00340
C         -1.36589       -1.63978       -0.00223
N         -2.53790       -2.36161       -0.00237
C         -3.60527       -1.48703       -0.00074
N         -3.09732       -0.20457        0.00020
C         -1.71583       -0.26228       -0.00062
C         -0.98285        0.98542       -0.00024
C         -1.78678        2.19286        0.00053
N         -2.44752        3.12699        0.00141
C          0.39696        1.22020       -0.00051
N          0.83177        2.46481       -0.00041
C          2.10541        2.54180       -0.00024
C          2.63280        1.35760       -0.00017
C          1.58981        0.48201       -0.00058
H          1.71467       -3.06264       -0.00329
H         -0.41048       -3.48361       -0.00472
H         -4.69126       -1.66509       -0.00018
H          2.55308        3.54676       -0.00002
H          3.69982        1.14730        0.00014
