27
Coordinates from ORCA-job ./opt_b97-3c_parallel
N          4.46243       -2.51033       -0.35926
C          3.97516       -1.49971       -0.15192
C          3.31009       -0.26301        0.09054
C          3.99966        0.91173        0.54801
N          3.14073        1.93904        0.69276
C          1.92137        1.40812        0.32973
N          0.80463        2.07913        0.29306
C         -0.45394        2.12093       -0.05258
N         -0.11229        2.88273       -0.78878
C         -1.56366        1.32088        0.16925
C         -2.44428        1.94654        0.44444
N         -3.36857        2.24890       -0.15717
C         -1.48732       -0.02052        0.04058
C         -2.52048       -0.90412        0.20259
C         -3.88999       -0.97525        0.60892
N         -4.97387       -1.07153        0.95077
C         -2.02445       -2.14588       -0.08263
N         -2.21378       -3.24042       -0.15960
N         -0.72040       -2.09799       -0.37469
C         -0.36509       -0.74890       -0.29197
N          0.92656       -0.63816       -0.41356
C          1.98189        0.03255       -0.05022
H          5.07335        1.02685        0.76788
H          0.36031        3.78783       -0.73289
H         -1.01556        3.08905       -1.22007
H         -3.18305       -3.37126        0.14834
H         -1.92669       -4.17483       -0.46510
