28
Coordinates from ORCA-job ./opt_b97-3c_parallel
N         -3.64722       -3.15441       -0.25152
C         -2.74881       -2.45108       -0.17790
C         -1.58948       -1.60321       -0.07382
C         -0.43584       -2.44129       -0.00801
N          0.92487       -2.31201        0.00900
C          1.75868       -1.23219        0.00411
C          3.13820       -1.56676       -0.01515
C          3.84692       -0.33188        0.01350
N          4.89138        0.02778        0.01449
N          2.91619        0.69174        0.06037
C          1.68059        0.13039        0.05267
C          0.56390        1.07615        0.10138
C          0.96168        2.46503        0.22466
N          1.48119        3.45796       -0.00583
C         -0.89673        0.94134        0.02821
C         -1.68449        2.06605        0.01749
C         -2.93841        1.54741       -0.07746
N         -3.80720        2.22513       -0.03262
C         -3.07904        0.19454       -0.06687
C         -1.76742       -0.21199       -0.04489
H         -0.34950       -3.53911       -0.01410
H          3.56799       -2.56418       -0.04312
H          5.71649       -0.57087        0.05660
H          5.24087        0.98557       -0.02029
H         -1.43181        2.94294       -0.57899
H         -3.87179        3.24163       -0.00748
H         -4.76459        1.87538       -0.02527
H         -3.83196       -0.25053        0.58413
