22
Coordinates from ORCA-job ./opt_b97-3c_parallel
N          3.67189       -2.24741        0.00232
C          2.69024       -1.66414        0.00186
C          1.42919       -0.97188        0.00182
C          0.33874       -1.89836        0.00361
N         -1.03455       -1.85648        0.00459
C         -1.93909       -0.82492        0.00288
C         -3.29889       -1.22600        0.00433
C         -4.05370       -0.02140        0.00305
N         -3.17427        1.04572        0.00098
C         -1.92337        0.54506        0.00116
C         -0.91781        1.48353       -0.00051
C          0.52137        1.41570       -0.00095
C          1.18911        2.60064       -0.00215
C          2.52917        2.38355       -0.00464
N          2.68654        1.01266       -0.00272
C          1.47445        0.42401       -0.00066
H          0.50653       -2.98573        0.00523
H         -3.68533       -2.24026        0.00607
H         -5.14994        0.06817        0.00366
H         -1.26297        2.51498       -0.00145
H          0.72939        3.58674       -0.00685
H          3.49347        2.91362       -0.00668
