27
Coordinates from ORCA-job ./opt_b97-3c_parallel
N          3.55700       -2.35411       -1.21729
C          3.08151       -1.38913       -0.83293
C          2.52441       -0.15292       -0.37297
C          3.39714        0.87488       -0.16620
N          2.67898        1.89920        0.27519
C          1.33622        1.57281        0.26653
C          0.39281        2.56327        0.71173
C         -0.90030        2.58236        0.10897
C         -1.21205        1.76285       -0.92892
C         -1.87927        0.85286       -0.17559
C         -3.23431        0.94077       -0.04891
C         -3.28043       -0.37466        0.33349
N         -4.30646       -0.78051        0.42600
C         -2.29351       -1.23567        0.73787
C         -1.33250       -0.37329        0.29313
C          0.05520       -0.75839        0.05191
C          0.34218       -2.16067        0.14993
N          0.53251       -3.28343        0.25229
C          1.15926        0.20022       -0.12198
H          4.49286        0.93653       -0.24582
H          0.72852        3.44878        1.24264
H         -1.54042        3.42390        0.35935
H         -1.63728        2.15922       -1.84834
H         -3.84934        1.32431       -0.86228
H         -4.37264       -1.79409        0.35264
H         -5.14355       -0.40071       -0.01197
H         -2.30711       -2.28446        0.44325
