26
Coordinates from ORCA-job ./opt_b97-3c_parallel
N          4.60774        1.03364        0.21535
C          3.84192        0.18564        0.24919
C          2.86898       -0.86479        0.24566
C          3.21727       -2.18287        0.27810
N          2.06525       -2.81376        0.08166
C          0.96465       -1.98235       -0.02741
C         -0.26808       -2.30428       -0.47254
C         -1.42433       -2.22872        0.22194
C         -2.28490       -1.08325        0.20284
C         -3.68221       -1.32256        0.41996
N         -4.80325       -1.51087        0.54025
C         -1.77466        0.25687       -0.06981
C         -2.70900        1.34682       -0.16692
C         -2.19068        2.61013       -0.29074
C         -0.86513        2.26329       -0.27056
C         -0.15517        3.50737       -0.34981
N          0.61048        4.19665        0.14122
C         -0.54748        0.87483       -0.15193
C          0.86560        0.56268       -0.04161
C          1.46728       -0.67222        0.09283
H          4.23821       -2.58554        0.35979
H         -0.28741       -2.97883       -1.32486
H         -1.90175       -3.16366        0.50468
H         -3.78034        1.18547       -0.11143
H         -2.58008        3.41315        0.33525
H          1.52586        1.42314       -0.04529
