28
Coordinates from ORCA-job ./opt_b97-3c_parallel
N         -5.15643       -0.38916       -0.73932
C         -4.15049        0.15296       -0.71775
C         -2.88882        0.82130       -0.64900
C         -2.73841        2.15815       -0.87734
N         -1.53826        2.50241       -0.42460
C         -0.87417        1.35631       -0.03130
C          0.41587        1.43534        0.60693
C          1.44748        0.44047        0.35462
C          2.82360        0.82211        0.48166
C          3.31355        2.05483        1.01934
N          3.69666        3.05409        1.42034
C          3.56076       -0.10815       -0.17546
C          2.74430       -1.00146       -0.71653
C          1.44714       -0.74204       -0.36427
C          0.30899       -1.60538       -0.54065
C          0.41854       -2.67052       -1.49960
N          0.74484       -3.58685       -2.10050
C         -0.67455       -1.81925        0.38988
N         -0.56238       -2.92392        1.15201
C         -1.64968       -0.94505        0.57667
C         -1.71610        0.22229       -0.11962
H         -3.38861        2.97683       -1.22035
H          0.74502        2.42785        0.89629
H          4.64341       -0.09833       -0.27810
H          3.07546       -1.85148       -1.30890
H          0.02144       -3.69835        0.83890
H         -1.38684       -3.31988        1.59981
H         -2.39627       -1.13306        1.34594
