27
Coordinates from ORCA-job ./opt_b97-3c_parallel
N         -3.92782        2.95131        0.05317
C         -3.03446        2.24021        0.04992
C         -1.88625        1.38586        0.04498
C         -0.82241        2.25076        0.08222
N          0.51527        2.30003        0.05868
C          1.44082        1.27100        0.03151
N          2.77186        1.59656       -0.03351
C          3.47302        0.40130       -0.03401
N          4.47450        0.87793       -0.13677
C          2.66891       -0.71820        0.07164
C          3.18000       -1.69288        0.22911
N          4.08652       -2.38987        0.23037
C          1.41746       -0.15406        0.07222
N          0.40518       -1.10234        0.08006
C         -0.92518       -0.96548        0.02578
C         -1.61111       -2.21281       -0.01198
C         -2.95022       -2.03952       -0.08507
N         -3.93194       -2.94704       -0.17841
C         -3.13453       -0.72674       -0.07953
C         -1.94515       -0.04429       -0.01004
H         -0.74322        3.34974        0.11365
H          5.04967        0.03239       -0.08121
H          5.13470        1.63317       -0.33321
H         -1.11802       -3.18116        0.00455
H         -3.78918       -3.90623        0.13495
H         -4.90070       -2.69154        0.00824
H         -4.11544       -0.25888       -0.14691
