27
Coordinates from ORCA-job ./opt_b97-3c_parallel
N         -4.29965       -2.12530       -0.89608
C         -3.74755       -1.14850       -0.67874
C         -3.01641        0.04667       -0.39177
C         -3.53529        1.30811       -0.42813
N         -2.53552        2.07167        0.00274
C         -1.36554        1.39383        0.28862
C         -0.20083        1.80511        0.84193
C          0.86494        1.99358        0.02237
N          0.90028        3.08955       -0.13385
C          1.82334        0.96846       -0.29048
C          3.10565        1.31896       -0.82730
N          4.14469        1.55577       -1.23876
C          1.57393       -0.40230        0.11236
N          2.44785       -1.35971        0.11716
C          2.04652       -2.57207        0.33233
N          2.86181       -3.31120        0.23049
C          0.70189       -2.48633        0.55061
C          0.43837       -1.16334        0.33666
N         -0.90626       -1.10718        0.19392
C         -1.64859        0.04742       -0.01450
H         -4.56137        1.58145       -0.71780
H         -0.12705        1.96892        1.91630
H          0.11715        3.72342       -0.29406
H          1.74678        3.62857       -0.31503
H          3.87536       -3.21457        0.16248
H          2.67393       -4.31345        0.19520
H          0.03713       -3.28239        0.21005
