32
Coordinates from ORCA-job ./opt_b97-3c_parallel
N          3.92359        2.86802       -1.07866
C          2.98002        2.31411       -0.74943
C          1.80051        1.63647       -0.28865
C          0.63588        2.42010        0.01464
N          0.42479        3.50532       -0.09069
C         -0.36260        1.97450        0.81384
C         -1.48499        1.50317        0.22638
N         -2.75205        1.44300       -0.04172
C         -3.83558        0.77277       -0.28287
N         -4.83458        1.24402       -0.34025
C         -2.93880       -0.27161       -0.32072
C         -3.58977       -1.52322       -0.58844
N         -4.51466       -2.05906       -0.18205
C         -1.60345        0.16941       -0.04325
C         -0.60768       -0.87334        0.06754
C          0.84258       -0.74456        0.19112
C          1.54605       -1.98491        0.31906
C          1.14384       -3.35887        0.43400
N          0.42816       -4.16131        0.04785
C          2.88797       -1.76869        0.26422
N          3.93764       -2.60374        0.35499
C          3.03661       -0.46215        0.08806
C          1.84357        0.21701        0.04081
H          1.41333        3.75853       -0.11321
H         -0.08272        4.37319       -0.25979
H         -0.29556        2.05942        1.89776
H         -5.50782        1.98501       -0.14651
H         -5.36528        0.37082       -0.33215
H         -0.99574       -1.88393        0.03045
H          3.81905       -3.59967        0.17408
H          4.85100       -2.32669       -0.00117
H          4.01529        0.01032        0.02233
