24
Coordinates from ORCA-job ./opt_b97-3c_parallel
N          5.07526       -0.99210       -0.01915
C          4.13524       -0.34339       -0.01674
C          2.93201        0.43228       -0.01135
C          2.98196        1.79561       -0.01541
N          1.71236        2.18310       -0.01764
C          0.83843        1.11300       -0.00675
C         -0.55605        1.43094       -0.01445
C         -1.67165        0.54002        0.03438
N         -2.90590        0.93112        0.05514
C         -3.83104        0.02339        0.03430
N         -4.86413        0.41407       -0.01582
C         -3.17597       -1.16576        0.17759
C         -1.86072       -0.81261        0.08932
N         -1.20941       -1.98117        0.09241
C          0.14326       -2.25142        0.02161
C          1.36575       -1.50225       -0.01107
C          1.60127       -0.08155       -0.00196
H          3.84327        2.48110       -0.01817
H         -0.79993        2.48972       -0.03481
H         -5.22979        1.36640       -0.01604
H         -5.67952       -0.19822       -0.04964
H         -3.57427       -2.08172       -0.26139
H          0.39221       -3.32415        0.01768
H          2.24902       -2.13273       -0.03550
