28
Coordinates from ORCA-job ./opt_b97-3c_parallel
N         -5.63656        1.54287       -0.64673
C         -4.79500        0.80260       -0.42363
C         -3.74951       -0.14565       -0.18847
C         -3.98453       -1.48893       -0.16906
N         -2.80653       -2.04150        0.08961
C         -1.80770       -1.09266        0.21077
C         -0.47958       -1.58798        0.41185
C          0.75340       -0.87004        0.22290
C          1.98263       -1.61253        0.11447
C          2.07368       -3.04421        0.18279
N          2.11421       -4.18495        0.24235
C          3.12878       -0.87865       -0.10748
N          4.38312       -1.35164       -0.24769
C          2.54562        0.36910       -0.09006
C          3.52174        1.40302       -0.29061
N          3.98109        2.03809       -1.12421
C          1.13057        0.42824        0.10359
C          0.51719        1.71716        0.26303
C          0.85257        3.10915        0.33838
N          1.52281        3.91184        0.80265
C         -0.79281        2.11878        0.38996
N         -2.01785        1.50985        0.21182
C         -2.38471        0.18958        0.03160
H         -4.88111       -2.11235       -0.30341
H         -0.42056       -2.66591        0.51895
H          4.53871       -2.32760       -0.49494
H          5.09394       -0.78904       -0.71294
H         -1.64901        2.80401        0.50111
