26
Coordinates from ORCA-job ./opt_b97-3c_parallel
N         -2.54642        3.29997       -1.59434
C         -1.91833        2.54648       -1.00936
C         -1.18272        1.57296       -0.26187
C         -0.12304        2.26881        0.26366
N          0.78841        1.73710        1.00233
C          1.71978        1.01992        0.46539
C          3.04107        1.56513        0.42896
C          3.91382        0.65634       -0.05705
C          3.22831       -0.43460       -0.34224
C          1.89828       -0.24660       -0.06695
C          0.83551       -1.23806       -0.12877
C          1.28307       -2.58539       -0.34516
N          1.05223       -3.60939       -0.79831
C         -0.56986       -0.89161        0.03138
N         -1.43049       -1.92011        0.18031
C         -2.72800       -1.47559        0.37838
N         -3.33192       -2.39451        0.47525
C         -2.57333       -0.13150        0.25668
C         -1.32683        0.24365        0.03080
H          0.28607        3.29197        0.26092
H          3.29128        2.55180        0.80887
H          4.98736        0.79165       -0.17066
H          3.67068       -1.34370       -0.74467
H         -4.34097       -2.38569        0.62407
H         -3.06930       -3.37778        0.39533
H         -3.42132        0.55254        0.27086
