28
Coordinates from ORCA-job ./opt_b97-3c_parallel
N          4.27794        2.04480       -0.10054
C          3.52793        1.19969        0.07413
C          2.55393        0.17245        0.28746
C          3.18537       -0.88197       -0.29834
N          2.15953       -1.58350       -0.72201
C          0.86978       -1.10490       -0.64610
C         -0.00010       -2.15442       -0.73574
C         -0.87353       -2.27179        0.31020
N         -1.30260       -3.17064        0.78199
N         -1.46746       -1.39298        1.06139
C         -1.88716       -0.28995        0.51679
C         -3.17088       -0.17660        0.07974
C         -2.87523        1.06751       -0.41453
N         -3.78685        1.62549       -0.70359
C         -1.68515        1.71904       -0.61032
C         -1.03228        0.80246        0.16809
C          0.30368        0.89312        0.51954
C          0.44708        1.77743        1.18196
N          0.74226        2.63848        1.87602
C          1.21450        0.02209        0.04614
H          4.14086       -1.40997       -0.43891
H          0.18523       -2.99147       -1.40772
H         -2.30392       -3.34339        0.84697
H         -0.83316       -4.04835        0.99393
H         -3.61202       -0.94503       -0.55339
H         -3.78806        2.55328       -0.28312
H         -4.75076        1.41945       -0.95972
H         -1.58259        2.78898       -0.43054
