28
Coordinates from ORCA-job ./opt_b97-3c_parallel
N          2.63979       -3.19821        0.60059
C          1.80434       -2.42990        0.46532
C          0.72166       -1.50659        0.31200
C         -0.57653       -2.09958        0.53387
N         -1.75266       -1.79579       -0.13025
C         -2.09097       -0.50247       -0.46483
C         -3.32956       -0.63243       -1.02382
C         -3.85183        0.30206       -0.16228
N         -4.93807        0.49344       -0.26479
C         -3.26341        1.04265        0.83383
C         -2.08327        0.38835        0.63566
N         -1.08581        1.34079        0.67504
C          0.14616        1.01536        0.25215
C          1.02085        2.11598        0.02871
C          2.31425        1.85244       -0.33294
N          3.20503        2.83020       -0.09114
C          2.21625        0.48299       -0.30374
C          3.41834       -0.18256       -0.71264
N          4.38743       -0.67999       -1.05915
C          0.93349       -0.08457        0.04598
H         -0.71962       -3.17468        0.72127
H         -3.82260       -1.59236       -1.19362
H         -5.45738        1.34875       -0.07560
H         -5.61727       -0.26500       -0.28813
H         -3.33660        2.13155        0.84266
H          0.66201        3.13487        0.15287
H          2.97765        3.79848       -0.30669
H          4.19195        2.68311       -0.29372
