22
Coordinates from ORCA-job ./opt_b97-3c_parallel
N          4.62845        1.03577        0.15283
C          3.73837        0.32831        0.04893
C          2.58327       -0.50709       -0.05616
C          2.62569       -1.86533        0.06906
N          1.34263       -2.20469        0.02720
C          0.43959       -1.17014       -0.11056
C         -0.88249       -1.55915       -0.20479
C         -1.98970       -0.83100       -0.03828
N         -3.13855       -1.48138       -0.05704
C         -3.97322       -0.47192        0.18408
N         -3.35439        0.74504        0.29508
C         -2.00652        0.52269        0.12059
N         -1.59660        1.82901        0.15862
C         -0.24428        1.86329       -0.06166
N          0.11083        2.90922       -0.14255
N          1.02463        1.37712       -0.24390
C          1.26059        0.00559       -0.17728
H          3.46535       -2.56833        0.18674
H         -1.03613       -2.62727       -0.36805
H         -5.04481       -0.72183        0.25854
H          1.05250        3.30658       -0.18414
H         -0.50992        3.70795       -0.28217
