25
Coordinates from ORCA-job ./opt_b97-3c_parallel
N         -4.47236        1.82788       -0.72843
C         -3.71918        0.96893       -0.68701
C         -2.77836       -0.10271       -0.58963
C         -3.14941       -1.41238       -0.68349
N         -2.13883       -2.13126       -0.20994
C         -1.07761       -1.28829        0.06005
C          0.11937       -1.80011        0.68137
C          1.40467       -1.33448        0.44098
N          2.48376       -2.09262        0.65472
C          3.52461       -1.50845       -0.04756
N          3.11379       -0.37566       -0.72271
C          1.82631       -0.25184       -0.39690
C          1.11895        0.96951       -0.68627
C          1.60877        1.85480       -1.71121
N          2.21303        2.65842       -2.25588
C          0.29311        1.62093        0.19419
N          0.79872        2.67666        0.86253
C         -0.93136        1.18387        0.44158
C         -1.44087        0.06556       -0.14253
H         -4.07894       -1.94412       -0.93651
H          0.03107       -2.81295        1.06375
H          4.47380       -2.05696        0.04831
H          1.63925        3.13770        0.51658
H          0.17497        3.39982        1.21670
H         -1.54390        1.70717        1.17292
