25
Coordinates from ORCA-job ./opt_b97-3c_parallel
N         -4.01438       -2.36943       -0.02395
C         -3.04636       -1.76191       -0.01202
C         -1.80983       -1.03814        0.00103
C         -0.68169       -1.92920        0.01880
N          0.69805       -1.88858        0.02691
C          1.53847       -0.85530        0.02241
C          2.89351       -1.28800        0.02153
C          3.70076       -0.10977        0.01155
N          4.78474        0.10173        0.00192
N          2.89915        0.96767        0.01287
C          1.58959        0.50823        0.01844
C          0.59845        1.53613        0.01979
C         -0.83029        1.42057        0.01167
C         -1.55547        2.64858        0.00659
C         -2.88354        2.39374       -0.00812
C         -3.06418        1.08234       -0.01297
C         -1.86179        0.41462       -0.00089
H         -0.75906       -3.02740        0.02196
H          3.24892       -2.31481        0.02377
H          5.25964        1.00371       -0.02621
H          5.51594       -0.60460       -0.08233
H          0.98146        2.55357        0.02199
H         -1.09117        3.63031        0.01090
H         -3.67248        3.14251       -0.01593
H         -4.05107        0.62430       -0.02550
