25
Coordinates from ORCA-job ./opt_b97-3c_parallel
N         -3.09956       -2.77532       -0.03568
C         -2.04279       -2.33806       -0.03752
C         -1.41893       -1.42175       -0.03245
C         -0.15782       -1.90668       -0.02371
N          1.19544       -2.05994       -0.00907
C          1.86882       -0.90283        0.01201
C          3.28734       -1.00483        0.05204
C          3.86055        0.22355        0.08899
N          5.15501        0.56402        0.17472
C          2.85564        1.09175        0.05799
C          1.64061        0.46061        0.01595
N          0.50168        1.27237        0.00575
C         -0.88017        1.05967       -0.01024
N         -1.68124        2.17807       -0.00532
C         -3.00691        1.78026       -0.01449
N         -3.93656        2.37681       -0.01326
N         -3.02220        0.39625       -0.02564
C         -1.72780       -0.09421       -0.02275
H          0.35487       -2.88546       -0.02443
H          3.83259       -1.94479        0.06107
H          5.89206       -0.10410       -0.05018
H          5.47859        1.49686       -0.07864
H          2.98687        2.17231        0.08756
H         -4.04659        3.39240       -0.00775
H         -4.88666        2.00141       -0.01580
