27
Coordinates from ORCA-job ./opt_b97-3c_parallel
N         -4.61524        1.64263       -0.37234
C         -3.91735        0.75369       -0.20191
C         -3.01732       -0.33462        0.03434
C         -3.54635       -1.60476        0.42046
N         -2.54194       -2.04529        0.47144
C         -1.60333       -1.83321       -0.06286
C         -0.53794       -2.66385        0.15316
C          0.70794       -2.37938       -0.32093
N          1.55481       -2.99351       -0.66745
N          1.35101       -1.42075        0.26251
C          1.38885       -0.13155        0.12569
C          2.63791        0.58661        0.12752
C          3.92213       -0.02769        0.28278
N          4.96074       -0.48755        0.41229
C          2.62193        1.95330       -0.03610
C          1.26877        2.09537       -0.17285
C          0.94744        3.47012       -0.40318
N          0.18166        4.30786       -0.27101
C          0.51880        0.89609       -0.07053
C         -0.91605        0.88722       -0.19320
C         -1.57483       -0.39095       -0.04394
H         -4.60467       -1.86911        0.56546
H         -0.70092       -3.63593        0.61924
H          1.19938       -3.94659       -0.63267
H          2.55423       -3.04209       -0.47900
H          3.19155        2.59689        0.63285
H         -1.44694        1.81672       -0.37251
