26
Coordinates from ORCA-job ./opt_b97-3c_parallel
N         -3.99106       -2.82531        0.63656
C         -3.64928       -1.75728        0.41539
C         -3.16955       -0.44204        0.12905
C         -3.97659        0.64523       -0.04024
N         -3.12665        1.61982       -0.34480
C         -1.79408        1.25099       -0.37100
C         -0.72355        2.02275       -0.70699
C          0.07812        2.41782        0.32054
N          0.88895        3.06529        0.68695
N          0.91113        1.44385        0.14743
C          1.37671        0.24131        0.04212
C          2.69365       -0.12917        0.00179
C          3.94984        0.55535        0.01694
N          4.87059        0.43004       -0.64754
C          2.64755       -1.55172       -0.03947
N          3.10615       -2.55581       -0.07056
N          1.36837       -2.06375       -0.04122
C          0.58999       -0.96670       -0.01181
N         -0.79740       -1.11313        0.04205
C         -1.79240       -0.13304       -0.03373
H         -5.07239        0.72573        0.02463
H         -0.76369        2.62197       -1.61501
H          1.79373        3.52362        0.78718
H          0.18775        3.80373        0.73273
H          3.11246       -3.55910        0.11063
H          4.07922       -2.28157       -0.20634
