26
Coordinates from ORCA-job ./opt_b97-3c_parallel
N         -4.70765        1.30469       -0.69320
C         -3.89774        0.51942       -0.51664
C         -2.88199       -0.44865       -0.24793
C         -3.10545       -1.79480       -0.21461
N         -1.94490       -2.27914        0.22043
C         -0.94236       -1.34532        0.42647
N          0.23266       -1.39728        0.95258
C          1.29106       -1.48543        0.22557
N          1.50305       -2.57349        0.26420
C          2.03188       -0.36332       -0.28782
C          3.31728       -0.63162       -0.86848
N          4.34606       -0.87277       -1.30213
C          1.63545        1.01435       -0.01121
C          2.51683        2.05362       -0.13316
C          1.88330        3.18090        0.14355
C          0.61194        2.97042        0.43778
C          0.36006        1.63732        0.33219
C         -1.02243        1.20794        0.19480
C         -1.53270       -0.12953        0.05697
H         -4.08429       -2.22251       -0.48322
H          2.49539       -2.38994        0.41614
H          1.38933       -3.58268        0.36460
H          3.56858        1.98723       -0.40254
H          2.35244        4.16254        0.13207
H         -0.10958        3.74176        0.70086
H         -1.75436        2.00968        0.16307
