24
Coordinates from ORCA-job ./opt_b97-3c_parallel
N          4.80941        1.77619        0.00072
C          4.00538        0.96388       -0.00050
C          2.96899       -0.02527       -0.00124
C          3.34610       -1.40266        0.00041
N          2.26744       -1.65605       -0.00110
C          1.19796       -1.37221       -0.00196
C         -0.12474       -1.91765       -0.00188
C         -1.38161       -1.32966       -0.00174
C         -2.40109       -2.32892       -0.00015
C         -3.64697       -1.66161        0.00017
N         -3.39482       -0.31070       -0.00122
C         -2.05492       -0.10899       -0.00221
C         -1.62449        1.22723       -0.00291
C         -2.63701        2.25369       -0.00289
N         -3.41021        3.09647       -0.00272
C         -0.29010        1.75742       -0.00429
C          0.92748        1.16950       -0.00453
C          1.59636       -0.01187       -0.00296
H          4.33280       -1.88825        0.00218
H         -0.09799       -3.00396       -0.00070
H         -2.26684       -3.40659        0.00138
H         -4.70711       -1.95559        0.00143
H         -0.26734        2.84541       -0.00509
H          1.63957        1.99164       -0.00498
