25
Coordinates from ORCA-job ./opt_b97-3c_parallel
N          3.03501       -3.21224        0.52885
C          2.88851       -2.09277        0.36287
C          2.64131       -0.69862        0.15137
C          3.61230        0.25790        0.07946
N          2.92925        1.36422       -0.19914
C          1.55989        1.20735       -0.29620
C          0.65552        2.13115       -0.70341
C         -0.43669        2.32171        0.07876
N         -0.72957        3.29828        0.51659
N         -1.63936        1.77645        0.46450
C         -1.98102        0.46534        0.13061
C         -3.30653        0.14291        0.19443
C         -3.29189       -1.20631       -0.06846
N         -3.98395       -2.06064       -0.14171
N         -2.04272       -1.66664       -0.24417
C         -1.15843       -0.67952       -0.15518
N          0.20475       -0.97710       -0.10013
C          1.33544       -0.16593       -0.03591
H          4.69858        0.10113        0.17451
H          0.96028        2.89599       -1.41590
H         -1.55977        3.89428        0.58160
H          0.04626        3.93207        0.72644
H         -4.06361        0.78176       -0.25898
H         -4.97713       -1.90912       -0.32082
H         -3.87664       -3.06787       -0.01519
