29
Coordinates from ORCA-job ./opt_b97-3c_parallel
N         -4.54077       -0.13500        1.72566
C         -3.66308       -0.64338        1.20084
C         -2.56030       -1.24300        0.51304
C         -2.83143       -2.53690        0.84261
N         -1.82066       -2.98804        0.13506
C         -1.21382       -1.91497       -0.47881
N         -0.12976       -1.87052       -1.19161
C          1.10712       -1.93910       -0.81425
N          1.25681       -2.98253       -1.15879
C          1.90049       -0.91761       -0.15885
C          3.23391       -1.31424        0.18416
N          4.28592       -1.68133        0.43578
C          1.40666        0.46191       -0.01333
C          2.25485        1.58076        0.33466
C          3.63374        1.60992        0.71785
N          4.72381        1.65107        1.05678
C          1.70791        2.83906        0.27117
C          0.45612        2.47837       -0.16051
C         -0.21978        3.73761       -0.27024
N         -1.12328        4.05420        0.35405
C          0.21098        1.07779       -0.29217
C         -1.12713        0.60205       -0.55747
C         -2.28739        1.31461       -1.00783
N         -2.45674        1.41152       -2.13471
C         -1.64265       -0.63921       -0.30345
H         -3.41373       -3.27892        1.41241
H          2.23627       -2.79066       -1.37085
H          1.07383       -3.92037       -1.51489
H          1.85104        3.53875        1.09720
