25
Coordinates from ORCA-job ./opt_b97-3c_parallel
N          5.05071        1.11856        1.01914
C          4.14157        0.47191        0.77184
C          2.98191       -0.30090        0.45010
C          3.37769       -1.59994        0.35917
N          2.27980       -2.18553       -0.06228
C          1.32133       -1.20342       -0.17911
C          0.13515       -1.62379       -0.71099
C         -1.10229       -1.26293       -0.25747
N         -2.13251       -2.09030        0.14676
C         -3.23086       -1.43484        0.48502
C         -2.89104       -0.13166        0.27983
C         -3.83621        0.91796        0.51456
N         -4.60749        1.74533        0.67645
C         -1.56308        0.08727       -0.19063
N         -1.04754        1.04264       -0.43333
C         -0.14973        1.68200       -0.33191
N         -0.50690        2.71477       -0.48761
C          1.25647        1.53119       -0.07735
C          1.66739        0.16330        0.10466
H          4.22522       -2.29312        0.46908
H          0.17327       -2.28134       -1.57659
H         -4.17907       -1.87666        0.82734
H         -1.46529        3.05895       -0.49665
H          0.08566        3.47971       -0.80285
H          1.92051        2.39050       -0.03480
