26
Coordinates from ORCA-job ./opt_b97-3c_parallel
N         -4.23298       -2.49148       -0.04718
C         -3.19735       -2.01325       -0.08719
C         -1.90718       -1.38844       -0.09946
C         -0.80879       -2.30217       -0.23132
N          0.52363       -2.19053       -0.16258
C          1.44701       -1.22990       -0.05370
N          2.77646       -1.56236        0.04737
C          3.49508       -0.37597        0.11296
N          4.49971       -0.83325        0.26676
C          2.66754        0.72577       -0.01017
C          3.14644        1.66774       -0.34718
N          3.84952        2.54665       -0.14979
C          1.40364        0.18804       -0.04801
N          0.36108        1.11383       -0.05032
C         -0.98486        1.03403       -0.01861
C         -1.42108        2.32519        0.05426
C         -2.76145        2.05218        0.15947
N         -3.70421        2.62435        0.26678
N         -3.10361        0.70882        0.11706
C         -1.96662       -0.00205        0.00260
H         -0.93702       -3.39356       -0.31735
H          5.07621       -1.63885        0.52413
H          5.16323       -0.05479        0.20861
H         -1.06561        3.09214       -0.63503
H         -4.65808        2.32735        0.48491
H         -3.76403        3.64102        0.17725
