22
Coordinates from ORCA-job ./opt_b97-3c_parallel
N         -3.05864       -3.39475        0.04692
C         -2.20355       -2.63757        0.01768
C         -1.09777       -1.72390       -0.01904
C          0.20672       -2.36860       -0.10848
N          1.57750       -2.07210       -0.14721
C          2.33760       -0.90782       -0.10510
C          3.69636       -1.01135       -0.12668
C          4.05106        0.30757       -0.00022
N          2.98373        1.12021        0.02051
C          1.85982        0.41710       -0.04751
N          0.61722        0.71040       -0.07391
C         -0.65516        0.75885       -0.01883
C         -1.43570        1.88019        0.01200
C         -1.12055        3.27217       -0.01484
N         -0.82903        4.37602       -0.04647
C         -2.77969        1.42427        0.07770
N         -2.78490        0.04475        0.08187
C         -1.50598       -0.38552        0.01853
H          0.29793       -3.46573       -0.14655
H          4.21776       -1.79315        0.42176
H          5.11557        0.58378        0.05266
H         -3.79042        1.85827        0.12124
