24
Coordinates from ORCA-job ./opt_b97-3c_parallel
N          3.03887       -2.40395       -0.67567
C          3.31193       -1.30451       -0.52155
C          2.57210       -0.11205       -0.23151
C          3.29664        1.11695       -0.22537
N          2.28455        1.51167        0.04054
C          1.22248        1.63828        0.35770
C          0.18453        2.26081        0.97022
C         -0.72135        2.37089       -0.03357
N         -1.19847        3.18149       -0.61274
N         -1.72982        1.63373       -0.50174
C         -1.94834        0.35478       -0.14659
N         -3.16765       -0.24197       -0.28273
C         -2.94305       -1.53674        0.14954
C         -1.66320       -1.87444        0.52454
C         -1.61049       -2.98048        0.50237
N         -1.18673       -3.86596       -0.08435
C         -1.05988       -0.65894        0.34850
N          0.33460       -0.74945        0.27975
C          1.29611        0.23878        0.08432
H          4.36906        1.26792       -0.42149
H          0.36563        3.09063        1.64989
H         -0.43718        3.78431       -0.92427
H         -2.02977        3.77056       -0.56893
H         -3.96425       -1.92418        0.00739
