24
Coordinates from ORCA-job ./opt_b97-3c_parallel
N          3.37911        3.39916       -0.07088
C          2.57414        2.58979       -0.03615
C          1.53199        1.61005        0.00447
C          0.14925        2.00988        0.04150
N         -0.94569        1.83436        0.07282
C         -1.74650        1.06529        0.05251
C         -3.03180        1.35850        0.01144
C         -3.84038        0.26484       -0.01180
N         -4.88864       -0.08819       -0.05134
N         -2.87865       -0.73934        0.01937
C         -1.56436       -0.28547        0.06236
N         -0.44022       -0.93103        0.09242
C          0.85060       -0.82457        0.04686
C          1.62224       -2.02791        0.03038
C          1.57977       -3.45695        0.04458
N          0.54627       -3.93989        0.12926
C          2.99436       -1.61985       -0.02283
N          3.08821       -0.28315       -0.03658
C          1.79087        0.18018        0.00613
H          0.06792        3.10921        0.03760
H         -3.41607        2.37827       -0.00456
H         -5.67666        0.56033       -0.10478
H         -5.30996       -1.01925       -0.05017
H          4.01398       -2.03517       -0.05660
