30
Coordinates from ORCA-job ./opt_b97-3c_parallel
N          5.71246        0.32104       -0.77834
C          4.71542       -0.19979       -0.57586
C          3.49331       -0.89328       -0.31056
C          3.50694       -2.24990       -0.16191
N          2.27112       -2.59642        0.18257
C          1.43317       -1.49833        0.25574
C          0.02594       -1.76004        0.48715
C         -1.11770       -0.89349        0.24252
C         -2.43725       -1.45731        0.13697
C         -2.72495       -2.85641        0.27424
N         -2.92658       -3.97791        0.36704
C         -3.45095       -0.57583       -0.18826
N         -4.77046       -0.84272       -0.11362
C         -2.69648        0.57097       -0.29771
C         -3.49118        1.72592       -0.59939
N         -4.26253        2.48910       -0.95793
C         -1.30391        0.42615       -0.02584
C         -0.42750        1.54801        0.09690
C         -0.54925        2.96482       -0.08400
N         -1.01235        3.96630        0.21474
C          0.77992        1.51199        0.70882
C          1.87753        1.05322        0.06352
C          2.76208        2.15648       -0.15958
N          3.45119        3.05557       -0.31069
C          2.20498       -0.34135       -0.04938
H          4.25411       -3.05347       -0.24607
H         -0.19330       -2.80614        0.67311
H         -5.44816       -0.20696       -0.53138
H         -5.10997       -1.79588       -0.23375
H          0.84451        1.72762        1.77463
