27
Coordinates from ORCA-job ./opt_b97-3c_parallel
N          5.14091        1.16336        0.80911
C          4.26231        0.45910        0.61684
C          3.15104       -0.39991        0.33979
C          3.24680       -1.81939        0.45641
N          2.18075       -1.80298        0.13079
C          1.21825       -1.38205       -0.23224
C         -0.02986       -1.59483       -0.74189
C         -1.17923       -1.03459       -0.26195
N         -2.24828       -1.89339       -0.09996
C         -3.20417       -1.04318        0.25546
N         -3.96783       -1.84226        0.34439
C         -2.80787        0.26808        0.32237
C         -3.89236        1.12083        0.70034
N         -4.78690        1.76654        0.99452
C         -1.41445        0.37907       -0.04882
C         -0.99198        1.74438       -0.25402
C          0.42431        1.94493       -0.39476
N          1.02317        2.85301       -0.55191
N          1.29963        0.99352       -0.36554
C          1.88746       -0.12586       -0.08510
H          4.16413       -2.34524        0.76212
H         -0.10677       -2.25514       -1.60323
H         -4.82706       -1.34388        0.58066
H         -4.24457       -2.80811        0.16759
H         -1.65498        2.60402       -0.30064
H          2.03277        2.95317       -0.45378
H          0.65020        3.79102       -0.68334
