27
Coordinates from ORCA-job ./opt_b97-3c_parallel
N          4.83257        0.09807       -0.09228
C          3.80995       -0.40384       -0.20432
C          2.55014       -1.06476       -0.34325
C          2.59530       -2.42464       -0.29015
N          1.38587       -2.88808       -0.06629
C          0.42984       -1.89601       -0.02714
C         -0.83819       -2.10574        0.43423
C         -2.01213       -1.59250       -0.06011
N         -2.59638       -2.52023       -0.22832
C         -2.48943       -0.21325       -0.10796
C         -3.88941        0.02587       -0.33112
N         -5.00666        0.22173       -0.46885
C         -1.60546        0.93672        0.06430
C         -2.02049        2.23629        0.08185
C         -0.96229        3.02445        0.12432
C          0.15840        2.25650        0.13223
C          1.47813        2.82155        0.14274
N          2.52505        3.27945        0.12077
C         -0.16682        0.84932        0.08265
N          0.67545        0.13570        0.03340
C          1.22284       -0.79832       -0.18627
H          3.38816       -3.18832       -0.29423
H         -0.89070       -2.66941        1.36797
H         -3.57029       -2.24152       -0.11271
H         -2.58128       -3.53798       -0.19743
H         -3.05123        2.58271        0.06179
H         -0.98502        4.11180        0.13863
