27
Coordinates from ORCA-job ./opt_b97-3c_parallel
N         -3.30897        2.95202       -0.41834
C         -2.28329        2.47564       -0.58794
C         -1.66131        1.58164       -0.37979
C         -0.44504        2.05248       -0.04827
N          0.85584        2.30652        0.23000
C          1.73641        1.25891        0.07690
C          3.11857        1.57266        0.13062
C          3.82989        0.43817       -0.03226
N          5.15990        0.26927       -0.05427
C          2.94302       -0.53789       -0.18247
C          1.62648       -0.11407       -0.10904
C          0.45013       -1.01041       -0.09392
C          0.88448       -2.38496       -0.13089
N          0.95226       -3.48853       -0.42450
C         -0.94895       -0.84972       -0.00425
N         -1.75632       -1.96818        0.15357
C         -3.08620       -1.60132        0.18069
N         -3.92982       -2.30315        0.28040
N         -3.13312       -0.23222        0.02403
C         -1.84948        0.26513       -0.09107
H         -0.00612        3.01484        0.26625
H          3.51053        2.57827        0.25419
H          5.57114       -0.63614        0.16765
H          5.77811        0.99264        0.31068
H          3.26266       -1.56596       -0.34158
H         -3.90412       -3.31987        0.20468
H         -4.91541       -2.04221        0.29773
