28
Coordinates from ORCA-job ./opt_b97-3c_parallel
N          0.68251        4.38767        0.09447
C          0.30094        3.30921        0.05738
C         -0.15257        1.93726        0.03860
C         -1.56664        1.80841        0.05021
N         -2.27308        2.67073        0.07128
C         -2.59737        0.73955       -0.00912
C         -2.52566       -0.64858       -0.01869
C         -3.65314       -1.39284       -0.08732
C         -3.37146       -2.69032       -0.02980
N         -2.04978       -2.79218        0.07910
C         -1.45076       -1.54653        0.09585
N         -0.22866       -1.21386        0.23695
C          0.74433       -0.41069        0.06790
C          2.08530       -0.90223       -0.02304
C          2.56180       -2.25336        0.01124
N          2.49678       -3.39121        0.08562
C          2.97842        0.11575       -0.13172
N          4.31846        0.12943       -0.22965
C          2.24564        1.21900       -0.11940
C          0.90476        0.94032       -0.01919
H         -1.81432        3.57215       -0.06321
H         -3.26423        2.88653        0.16889
H         -3.65353        1.04490       -0.05253
H         -4.66249       -0.99324       -0.17130
H         -4.03751       -3.56701       -0.05315
H          4.85134        0.96044        0.02477
H          4.86827       -0.68945        0.02835
H          2.67492        2.21695       -0.18838
