25
Coordinates from ORCA-job ./opt_b97-3c_parallel
N          3.93053        1.68117       -0.08328
C          2.87355        1.25066       -0.02880
C          1.52831        0.71536        0.00209
C          0.47322        1.66778        0.03593
N          0.71154        2.75802        0.05611
C         -0.94467        1.74522        0.03598
C         -1.98874        0.82695        0.00631
C         -3.27284        1.24240       -0.03603
C         -4.08810        0.19258       -0.06195
N         -3.29324       -0.87548       -0.02288
C         -1.98492       -0.57659        0.02293
N         -0.94361       -1.30385        0.10284
C          0.31379       -1.48656        0.04396
C          0.80941       -2.82398        0.03233
C          2.15680       -2.84173       -0.01549
C          2.54830       -1.58064       -0.03906
C          1.46009       -0.73821       -0.00617
H          0.22916        3.64654       -0.07350
H          1.69614        3.00193        0.16587
H         -1.40587        2.74551        0.04960
H         -3.60517        2.27931       -0.04953
H         -5.18254        0.07853       -0.09897
H          0.18134       -3.70957        0.06619
H          2.79606       -3.72199       -0.02623
H          3.59291       -1.27728       -0.07358
