24
Coordinates from ORCA-job ./opt_b97-3c_parallel
N         -4.33925       -2.24134        0.65774
C         -3.80226       -1.25766        0.43757
C         -3.08511       -0.05318        0.15708
C         -3.66955        1.17196        0.02190
N         -2.65556        1.97307       -0.28530
C         -1.41969        1.35736       -0.34269
C         -0.23862        1.93537       -0.70318
C          0.82327        1.94118        0.15173
N          1.45906        2.67011        0.68044
N          1.32428        0.95747        0.15089
C          1.40213       -0.14364        0.05538
C          2.64283       -0.85115       -0.00719
C          3.93693       -0.24006        0.00688
N          4.97428        0.23721       -0.01545
C          2.55933       -2.20894       -0.08904
N          1.25183       -2.40898       -0.09180
C          0.50655       -1.24842       -0.03367
N         -0.88488       -1.16437        0.01693
C         -1.67644       -0.01097       -0.02840
H         -4.72875        1.45812        0.11114
H         -0.20495        2.55722       -1.59562
H          0.98200        3.54845        0.88228
H          2.45845        2.87042        0.71921
H          3.34505       -2.97966       -0.11971
