28
Coordinates from ORCA-job ./opt_b97-3c_parallel
N         -2.98010        3.55421        1.16727
C         -2.23401        2.78195        0.77766
C         -1.32884        1.78646        0.28447
C         -0.17450        2.32160       -0.21821
N          0.56760        1.73707       -1.09399
C          1.53667        1.31056       -0.36130
C          2.70776        2.00724       -0.35204
C          3.35083        0.90797        0.15686
N          4.45649        0.97595        0.15827
C          2.85456       -0.22090        0.75697
C          1.60311        0.04070        0.27551
C          0.54439       -0.96460        0.19607
C          0.92552       -2.30465        0.54557
N          1.25040       -3.35570        0.85641
C         -0.86437       -0.72403       -0.15711
C         -1.74172       -1.77797       -0.35248
C         -1.91222       -3.19633       -0.48150
N         -1.74163       -4.18981       -1.02047
C         -3.01504       -1.27133       -0.39115
C         -3.00489        0.03529       -0.18854
C         -1.71702        0.44538       -0.07495
H          0.09488        3.38489       -0.10684
H          3.06234        2.51605       -1.24820
H          4.95435        0.08721        0.15460
H          5.02272        1.62729       -0.38273
H          3.33390       -1.18906        0.61385
H         -3.92983       -1.84231       -0.55622
H         -3.88308        0.67675       -0.18647
