23
Coordinates from ORCA-job ./opt_b97-3c_parallel
N         -2.55463       -3.00414       -0.20263
C         -1.56717       -2.42908       -0.26810
C         -1.03141       -1.46720       -0.14390
C          0.25949       -1.82890       -0.00685
N          1.61016       -1.91300        0.10364
C          2.30386       -0.72447        0.03751
C          3.72006       -0.77010        0.06765
C          4.14383        0.59270       -0.01330
N          3.03144        1.42178       -0.08578
C          1.96458        0.60825       -0.05368
C          0.72521        1.37562       -0.07661
C         -0.62643        1.04430       -0.03711
N         -1.50376        2.10456        0.00747
C         -2.79384        1.61095        0.04092
N         -3.75548        2.14762        0.07872
N         -2.72392        0.23181        0.00424
C         -1.40024       -0.16100       -0.04598
H          0.86087       -2.74511        0.12558
H          4.35172       -1.65032        0.13613
H          5.19453        0.92021       -0.01247
H          0.90493        2.44984       -0.10579
H         -4.69154        1.74853        0.14303
H         -3.87596        3.15957        0.05145
