25
Coordinates from ORCA-job ./opt_b97-3c_parallel
N          4.14884       -1.90062        0.53511
C          3.46212       -1.00023        0.38128
C          2.59601        0.11425        0.14885
C          3.05482        1.39356        0.03243
N          1.96757        2.10940       -0.23200
C          0.79444        1.37516       -0.27862
C         -0.45184        1.82835       -0.58580
C         -1.34200        1.92578        0.44028
N         -2.22455        2.43215        0.86187
N         -1.88330        0.82004        0.04668
C         -2.01069       -0.45614       -0.10255
C         -3.17230       -1.16154       -0.15451
C         -2.87186       -2.45364       -0.14312
C         -1.56202       -2.65600       -0.09725
C         -0.96502       -1.43546       -0.08245
C          0.46556       -1.22961        0.03425
C          1.18657        0.03257       -0.01267
H          4.09030        1.75658        0.11514
H         -0.58707        2.44175       -1.47532
H         -3.16542        2.30971        0.49217
H         -1.88952        3.33543        0.53410
H         -4.17415       -0.73866       -0.19134
H         -3.61076       -3.25075       -0.16681
H         -1.06022       -3.62041       -0.07179
H          1.05644       -2.13146        0.15471
