25
Coordinates from ORCA-job ./opt_b97-3c_parallel
N          5.05176       -1.25262        0.05396
C          3.92588       -1.05095        0.04079
C          2.51078       -0.81292        0.08032
C          1.70781       -1.94045        0.40691
N          0.43434       -1.95828        0.40552
C         -0.73840       -1.77249       -0.05603
C         -1.68819       -2.72947       -0.25754
C         -2.88914       -2.16955       -0.28090
C         -2.76327       -0.82787       -0.10336
C         -3.90817        0.03192       -0.13493
N         -4.84303        0.68790       -0.17079
C         -1.36201       -0.50272        0.02929
C         -0.76961        0.80807        0.27372
C         -1.66116        1.88182        0.61239
N         -2.33572        2.75711        0.91100
C          0.64677        1.16344        0.03398
C          0.92500        2.56386       -0.15014
C          2.30372        2.72421       -0.45226
N          2.90739        1.49218       -0.42262
C          1.95546        0.52360       -0.13679
H          2.17852       -2.91590        0.60234
H         -1.49267       -3.79163       -0.38489
H         -3.82816       -2.70106       -0.42656
H          0.22432        3.39148       -0.13265
H          2.85256        3.65116       -0.67588
