25
Coordinates from ORCA-job ./opt_b97-3c_parallel
N          3.03975       -2.92994        0.02776
C          2.40792       -1.97713        0.04254
C          2.00541       -0.60233       -0.00967
C          2.86985        0.46835       -0.07392
N          3.96812        0.59755       -0.10820
C          2.24392        1.68959       -0.12952
C          0.91309        1.37539       -0.08387
C         -0.04800        2.45233       -0.08368
C         -1.48621        2.51167       -0.01400
N         -2.53651        1.67812        0.01437
C         -2.57775        0.30379        0.00460
C         -3.85258       -0.32707        0.01252
C         -3.66540       -1.66792        0.01636
C         -2.35855       -1.89422        0.01714
C         -1.66534       -0.71434        0.00907
N         -0.34633       -0.85567        0.01556
C          0.70158       -0.03223       -0.01471
H          4.34763       -0.34418       -0.01987
H          4.73222        1.24281        0.08221
H          2.62599        2.55969        0.40452
H          0.40295        3.43921       -0.12408
H         -1.99982        3.48447       -0.00508
H         -4.79838        0.20551        0.01902
H         -4.44707       -2.42307        0.01819
H         -1.90643       -2.88407        0.01751
