26
Coordinates from ORCA-job ./opt_b97-3c_parallel
N          1.60722        4.41856        0.15260
C          1.11219        3.38857        0.15300
C          0.53073        2.08305        0.15880
C         -0.91700        2.08272        0.30686
N         -2.00935        1.21402        0.18916
C         -2.16569       -0.16064        0.05963
C         -3.41862       -0.66817       -0.13054
C         -4.77520       -0.25290       -0.29900
N         -5.55157        0.55249       -0.52997
C         -3.17704       -2.06769       -0.12523
N         -1.85183       -2.40813        0.07421
C         -1.22296       -1.22368        0.20031
N          0.01266       -1.03980        0.48617
C          1.06469       -0.37345        0.18887
C          2.32374       -1.04084        0.03541
C          2.63313       -2.43614        0.12872
N          2.81907       -3.55798        0.23697
C          3.33765       -0.16383       -0.19574
N          4.65722       -0.32736       -0.39210
C          2.76232        1.02815       -0.19686
C          1.41126        0.93994        0.01580
H         -1.49961        3.01351        0.38913
H         -3.98608       -2.80499       -0.24864
H          5.12944       -1.18052       -0.09374
H          5.30400        0.45123       -0.26848
H          3.30837        1.95697       -0.35553
