25
Coordinates from ORCA-job ./opt_b97-3c_parallel
N         -4.29527       -2.31854        0.00083
C         -3.70602       -1.33853        0.00086
C         -2.91760       -0.13918        0.00081
C         -3.63892        1.09511        0.00163
N         -2.84543        1.84880        0.00110
C         -1.81606        1.47070        0.00040
C         -0.80688        2.49042        0.00210
C          0.63634        2.39872        0.00187
C          1.65509        1.35262       -0.00085
C          2.97576        1.92561       -0.00083
N          4.03972        2.34182       -0.00123
C          1.60804       -0.11570       -0.00319
N          2.81868       -0.79136       -0.00543
C          2.59714       -2.15736       -0.00648
N          3.34137       -2.96919       -0.00811
N          1.23404       -2.37675       -0.00476
C          0.61878       -1.14920       -0.00294
C         -0.80349       -1.15143       -0.00049
C         -1.47772        0.09730        0.00013
H         -4.72561        1.27397        0.00242
H         -1.16936        3.51792        0.00358
H          1.06123        3.40116        0.00333
H          3.16413       -3.97310       -0.00597
H          4.35456       -2.85456       -0.00505
H         -1.28824       -2.12272       -0.00012
