29
Coordinates from ORCA-job ./opt_b97-3c_parallel
N         -3.45989       -3.40589       -0.00368
C         -2.57507       -2.69749        0.13416
C         -1.44197       -1.84981        0.34959
C         -0.28612       -2.38220        1.03358
N          0.83834       -2.57529        0.31523
C          1.78058       -1.63464        0.08086
N          2.99498       -1.90335       -0.52380
C          3.74274       -0.73462       -0.49726
N          4.75102       -0.84828       -0.94259
C          2.96926        0.29841        0.13434
C          3.41788        1.63480        0.36323
N          3.82821        2.68675        0.53133
C          1.70901       -0.26792        0.50758
N          0.72493        0.33484        1.09479
C         -0.45538        0.44674        0.57281
C         -1.02979        1.71212        0.21074
C         -0.39007        2.98744        0.35417
N          0.62194        3.51716        0.32473
C         -2.29540        1.74926       -0.32929
N         -3.24425        2.70380       -0.28490
C         -2.51036        0.39069       -0.36522
C         -3.68632       -0.10487       -1.01709
N         -4.60629       -0.49757       -1.56845
C         -1.45040       -0.40277        0.19577
H         -0.48492       -3.46410        1.10341
H          5.36061       -1.57744       -1.31928
H          5.33941       -0.01170       -0.89766
H         -2.99570        3.68902       -0.36919
H         -4.14214        2.56510       -0.74830
