28
Coordinates from ORCA-job ./opt_b97-3c_parallel
N          4.78862       -0.84681        1.83152
C          3.98222       -0.18785        1.36224
C          2.96062        0.60152        0.74816
C          3.00771        1.95802        0.60534
N          1.89137        2.26518       -0.05016
C          1.09040        1.18107       -0.35735
C         -0.07277        1.11627       -1.06510
C         -1.28593        0.94348       -0.46624
N         -2.27412        1.88080       -0.30875
C         -3.32997        1.23252        0.30958
N         -4.18892        1.91524        0.43811
C         -3.10912       -0.09341        0.58875
C         -1.85066       -0.25252        0.08596
C         -1.14679       -1.52314        0.09037
C         -1.72463       -2.71514        0.63387
N         -2.22596       -3.64421        1.06897
C          0.17226       -1.59592       -0.48875
N          0.38842       -2.03838       -1.47748
C          1.42546       -1.27851        0.14767
C          1.78046        0.05850        0.17742
H          3.83763        2.58202        0.96970
H         -0.02872        1.19904       -2.14881
H         -5.16565        1.62523        0.39201
H         -4.20104        2.93333        0.50987
H         -3.38674       -0.51687        1.55134
H          0.22791       -3.01085       -1.21784
H          1.19036       -2.03994       -2.10716
H          2.05218       -2.04439        0.59730
