27
Coordinates from ORCA-job ./opt_b97-3c_parallel
N          3.15974       -3.16987        0.84970
C          2.94575       -2.06365        0.65872
C          2.63143       -0.69619        0.38742
C          3.55175        0.31018        0.33300
N          2.84409        1.34973       -0.09977
C          1.49278        1.11833       -0.28907
C          0.50926        1.84931       -0.85837
C         -0.32136        2.37097        0.07601
N         -0.22344        3.42823        0.38175
C         -1.59093        1.80385        0.41745
C         -2.00678        0.49447       -0.03310
C         -3.33656        0.19503       -0.06050
C         -3.37122       -1.15834       -0.28421
N         -4.08309       -2.00087       -0.34156
N         -2.11026       -1.72179       -0.38415
C         -1.21434       -0.69065       -0.25195
C          0.17119       -1.08171       -0.05505
C          1.32405       -0.22685        0.07810
H          4.62954        0.23862        0.54616
H          0.68175        2.35749       -1.80537
H          0.65157        3.94948        0.43236
H         -0.97076        4.12048        0.42525
H         -2.34864        2.45444        0.85202
H         -4.04605        0.68043        0.60699
H         -5.09674       -1.89832       -0.38371
H         -3.90605       -2.99381       -0.18990
H          0.35468       -2.15050        0.00360
