27
Coordinates from ORCA-job ./opt_b97-3c_parallel
N          2.76921        2.85530       -1.13315
C          1.92833        2.16564       -0.78603
C          0.90817        1.26405       -0.32526
C         -0.38326        1.79663        0.00720
N         -0.79338        2.82315       -0.07898
C         -1.27789        1.14893        0.79121
C         -2.19466        0.38091        0.16351
C         -3.56621        0.65889       -0.07007
C         -4.12317       -0.57181       -0.55088
N         -3.13741       -1.55335       -0.58990
C         -2.03404       -0.91816       -0.18295
C         -0.86069       -1.73758       -0.03159
C          0.51801       -1.30323        0.14137
C          1.40106       -2.33493        0.30037
C          2.72000       -1.79589        0.22993
N          3.79661       -2.03901        0.25129
N          2.59424       -0.43639        0.01200
C          1.23798       -0.12401       -0.02119
H         -1.69972        3.24717       -0.27452
H         -0.10202        3.56444       -0.18999
H         -1.30705        1.29100        1.87143
H         -4.09662        1.58341        0.13418
H         -5.08489       -1.00548       -0.86720
H         -1.02353       -2.80995       -0.10899
H          1.18442       -3.39418        0.40695
H          4.16650       -2.98923        0.27815
H          4.60331       -1.42622        0.13121
