28
Coordinates from ORCA-job ./opt_b97-3c_parallel
N         -4.80072       -0.02361       -0.14782
C         -3.78025        0.43559        0.08890
C         -2.48186        0.96617        0.37804
C         -2.50965        1.96287       -0.55237
N         -1.33670        2.14407       -1.11949
C         -0.44937        1.16991       -0.71629
C          0.34084        1.74577        0.24684
C          1.67792        1.49571        0.33922
N          2.08001        2.52567        0.42406
C          2.38013        0.23272        0.23212
C          3.81543        0.26382        0.18587
N          4.95584        0.30519        0.11704
C          1.69772       -1.03915        0.01305
C          2.33928       -2.17039       -0.40025
C          1.42576       -3.10079       -0.61568
C          0.20833       -2.66250       -0.34049
C          0.29018       -1.37443        0.12664
C         -0.80412       -0.71100        0.65879
C         -1.31064       -1.29027        1.46781
N         -1.90028       -1.73322        2.34112
C         -1.25088        0.42538        0.09735
H         -3.05335        2.82561       -0.96653
H         -0.13613        2.30603        1.06261
H          3.09769        2.47834        0.39622
H          1.83115        3.50900        0.32934
H          3.40841       -2.29409       -0.55846
H          1.64758       -4.10285       -0.97560
H         -0.70333       -3.24879       -0.44023
