28
Coordinates from ORCA-job ./opt_b97-3c_parallel
N         -2.59322       -3.19901        0.30642
C         -2.52406       -2.06033        0.23447
C         -2.44771       -0.63238        0.10272
C         -3.47565        0.24581       -0.14863
N         -4.56471        0.15311       -0.31735
C         -3.08711        1.55739       -0.20327
C         -1.73648        1.43952       -0.03109
C         -0.90054        2.61910       -0.00371
C          0.54254        2.75914        0.08810
N          1.66784        1.93500        0.01435
C          1.77462        0.55196       -0.02043
C          2.97360       -0.08157       -0.15418
C          4.29157        0.45305       -0.32934
N          5.40169        0.38234       -0.06681
C          2.56978       -1.44898       -0.02612
N          3.17651       -2.37449       -0.02739
C          1.23709       -1.72825        0.15726
C          0.77971       -0.43345        0.19908
N         -0.27546       -0.32531        0.45389
C         -1.23985        0.13086        0.21380
H         -4.87653       -0.80385       -0.15935
H         -5.39488        0.74216       -0.28954
H         -3.63758        2.33662        0.32401
H         -1.43356        3.56203       -0.07573
H          1.08101        3.71855        0.08802
H          4.11839       -2.01477        0.12420
H          3.22514       -3.38438        0.09503
H          0.72794       -2.47930       -0.44850
