27
Coordinates from ORCA-job ./opt_b97-3c_parallel
N          4.14746        1.54217       -2.70707
C          3.58620        1.06245       -1.83487
C          2.87785        0.50267       -0.72828
C          3.55673       -0.05007        0.40375
N          2.68050       -0.32963        1.01092
C          1.69035       -0.46531        0.52738
C          0.80898       -1.60894        0.57230
C          1.23160       -2.79841        1.25083
N          1.55741       -3.76633        1.76402
C         -0.27247       -1.72097       -0.38158
C         -1.24531       -0.70466       -0.76157
C         -2.27099       -1.19616       -1.63257
N         -3.05932       -1.61234       -2.34780
C         -1.40124        0.56729       -0.04812
C         -2.69056        1.16671        0.20174
C         -4.00225        0.61601        0.03963
N         -5.06144        0.19717       -0.05698
C         -2.49871        2.33355        0.86448
C         -1.19894        2.51819        1.02014
C         -0.49879        1.50082        0.44023
C          0.90359        1.55377        0.15668
C          1.45206        0.44271       -0.56015
H          4.60911       -0.18976        0.69298
H         -0.53406       -2.73596       -0.67207
H         -3.28122        3.00014        1.22091
H         -0.75105        3.37349        1.52127
H          1.49926        2.39862        0.49160
