27
Coordinates from ORCA-job ./opt_b97-3c_parallel
N          2.72361        3.56563        1.49056
C          2.04852        2.78326        1.00188
C          1.22207        1.81555        0.35252
C          0.10597        2.30105       -0.27342
N         -0.58210        1.69196       -1.17900
C         -1.53890        1.25210       -0.43377
C         -2.72751        1.91981       -0.43108
C         -3.33555        0.84248        0.16020
N         -4.43965        0.90815        0.21816
C         -2.79972       -0.25734        0.77908
C         -1.56146        0.01163        0.26767
C         -0.47422       -0.96804        0.23205
C         -0.82285       -2.28557        0.68392
N         -1.13332       -3.31594        1.06979
C          0.92658       -0.68250       -0.14133
C          1.87753       -1.72564       -0.41794
C          1.68741       -3.11784       -0.71562
N          1.56876       -4.22466       -0.97478
C          3.15626       -1.09626       -0.46514
N          2.45667       -0.29210       -0.15704
C          1.72261        0.53069       -0.04546
H         -0.18478        3.35420       -0.12860
H         -3.11809        2.37199       -1.34214
H         -5.03875        1.55716       -0.28900
H         -4.91842        0.00896        0.21542
H         -3.26294       -1.23814        0.67551
H          4.10962       -1.59619       -0.69196
