26
Coordinates from ORCA-job ./opt_b97-3c_parallel
N         -4.61374       -2.12068       -0.13016
C         -4.02708       -1.14337       -0.06785
C         -3.24402        0.04822        0.00288
C         -3.79387        1.29392        0.10856
N         -2.72046        2.07844        0.14250
C         -1.49536        1.43705        0.07357
N         -0.27668        1.82766        0.07014
C          0.98349        2.01397       -0.06359
N          0.87200        3.11264       -0.10207
C          1.97716        0.98116       -0.05410
C          3.34584        1.40730       -0.08681
N          4.44526        1.71409       -0.09965
C          1.65959       -0.44700       -0.01163
N          2.72916       -1.32322        0.01850
C          2.26438       -2.62768        0.01529
N          2.95090       -3.49050        0.04281
N          0.88001       -2.57915       -0.02949
C          0.46325       -1.26476       -0.04002
C         -0.98990       -1.10998       -0.07928
C         -1.82081        0.07565       -0.01511
H         -4.86184        1.55923        0.16283
H          1.84272        3.32383       -0.33599
H          0.40108        4.01635       -0.04906
H          2.70830       -4.46344       -0.14838
H          3.93670       -3.50065        0.30806
H         -1.53548       -2.04951       -0.12370
