25
Coordinates from ORCA-job ./opt_b97-3c_parallel
N          2.45647       -3.23308       -0.14574
C          1.59882       -2.48287       -0.22598
C          0.51950       -1.55495       -0.37084
C         -0.75147       -2.07634       -0.83387
N         -1.99396       -1.79686       -0.26029
C         -2.54270       -0.54608        0.00784
C         -3.71947       -0.43258        0.68529
C         -3.94421        0.91586        0.57374
N         -3.00833        1.53585       -0.16106
C         -2.08803        0.67033       -0.57304
N         -1.05390        0.78070       -1.33828
C          0.02039        0.89987       -0.63431
C          0.57109        2.13474       -0.41841
C          1.74963        1.76787        0.20079
N          2.23945        2.73528        0.43015
C          1.91021        0.40016        0.31984
C          3.15187        0.02331        0.92963
N          4.15435       -0.24979        1.40467
C          0.79579       -0.20348       -0.19055
H         -0.79594       -3.17255       -0.93887
H         -3.88395       -0.95433        1.62591
H         -4.86364        1.24326        1.08325
H          0.53794        2.89266       -1.20510
H          3.13484        2.39013        0.77772
H          2.33440        3.74915        0.37290
