27
Coordinates from ORCA-job ./opt_b97-3c_parallel
N          5.03732        0.67125        0.27960
C          4.06130        0.08186        0.20738
C          2.80697       -0.60521        0.11159
C          2.75417       -2.03265        0.12040
N          1.68108       -1.77996       -0.01003
C          0.71848       -1.23553       -0.07899
C         -0.66384       -1.50799       -0.31432
C         -1.83827       -0.68837       -0.19442
C         -3.02832       -1.34449       -0.29319
C         -3.79739       -0.28388        0.09117
N         -4.88563       -0.41264        0.22698
C         -3.34243        0.98141        0.32760
C         -2.02400        0.69149        0.13954
C         -1.13276        1.82193        0.16646
C          0.26096        1.98953       -0.13040
N          0.90877        2.88273       -0.19085
N          1.38527        1.19482       -0.13536
C          1.52723       -0.13347       -0.01425
H          3.53501       -2.80436        0.19396
H         -0.86715       -2.56305       -0.47907
H         -3.16812       -2.32922        0.15236
H         -5.63637        0.26226        0.36507
H         -5.32950       -1.32833        0.17310
H         -3.80448        1.84151       -0.15716
H         -1.64531        2.76683        0.33158
H          1.86598        3.23189       -0.24493
H          0.31167        3.70836       -0.22096
