25
Coordinates from ORCA-job ./opt_b97-3c_parallel
N         -3.04044       -3.10625        0.73525
C         -2.84946       -1.99536        0.54705
C         -2.55792       -0.61633        0.30073
C         -3.54975        0.29293        0.07156
N         -2.94974        1.42455       -0.27690
C         -1.57911        1.28520       -0.19802
C         -0.75219        2.40319       -0.57894
C          0.58809        2.49561       -0.09373
C          1.04848        1.66173        0.86951
C          1.73828        0.79568        0.08857
N          2.82315        0.18314       -0.26809
C          3.51183       -0.90934       -0.35949
N          4.56127       -1.23671       -0.26264
C          2.23156       -1.34980       -0.50540
C          1.25575       -0.46768       -0.15344
C         -0.11017       -0.87123        0.11171
C         -1.25071       -0.06737        0.15377
H         -4.64564        0.19116        0.08261
H         -1.19424        3.26751       -1.06552
H          1.13139        3.40298       -0.34254
H          1.47763        2.05434        1.78805
H          4.89872       -2.19862       -0.27776
H          5.39094       -0.64578       -0.21777
H          2.01008       -2.40311       -0.67385
H         -0.25846       -1.94561        0.15762
