24
Coordinates from ORCA-job ./opt_b97-3c_parallel
N         -3.86510       -1.73006       -0.60747
C         -3.16443       -0.84696       -0.41745
C         -2.32722        0.29187       -0.18299
C         -3.00034        1.47289       -0.28025
N         -2.04821        2.36331       -0.05331
C         -0.78566        1.82426        0.12484
C          0.17665        2.64844        0.60980
C          1.35405        2.17429        0.18177
N          2.49826        1.59124       -0.23051
C          2.50134        0.21575       -0.22201
C          3.68455       -0.42551       -0.39297
C          3.45620       -1.71431       -0.22047
C          2.18401       -1.95489        0.06144
C          1.48201       -0.77345        0.07997
C          0.01151       -0.73074        0.23660
C         -0.58207       -2.00812        0.51655
N         -1.01513       -3.03672        0.76521
C         -0.91029        0.40426        0.04090
H         -4.04496        1.79875       -0.39929
H          0.00867        3.72235        0.63542
H          1.98981        3.06035        0.03092
H          4.64457        0.03328       -0.61952
H          4.21891       -2.48524       -0.30137
H          1.78657       -2.95455        0.21917
