24
Coordinates from ORCA-job ./opt_b97-3c_parallel
N          3.37781        3.57711        0.00812
C          3.14713        2.45787       -0.00654
C          2.82621        1.06354       -0.00317
C          3.83632        0.14889       -0.01559
N          3.16944       -0.99544       -0.00533
C          1.78520       -0.90891        0.01065
C          0.95570       -1.98610        0.02852
C          1.13375       -3.07926        0.02552
N          1.53670       -4.15006        0.00809
C         -0.37563       -1.77385        0.02727
N         -1.68621       -1.42133        0.02529
C         -1.93993       -0.06702        0.01676
C         -3.23251        0.36499        0.00846
C         -4.59667       -0.05861        0.00173
N         -5.50068       -0.75554       -0.05869
C         -3.17052        1.79513        0.00481
N         -1.89313        2.21914        0.01107
C         -1.09102        1.09216        0.01740
C          0.34067        1.35604        0.01896
C          1.51750        0.49414        0.01071
H          4.93627        0.12442       -0.03216
H         -1.24946       -2.44683        0.03435
H         -3.87770        2.63820       -0.00197
H          0.56301        2.41821        0.01876
