28
Coordinates from ORCA-job ./opt_b97-3c_parallel
N          4.89252       -1.29537       -0.35657
C          4.04557       -0.57185       -0.10308
C          2.95431        0.29336        0.23824
C          3.18404        1.41265        1.09822
N          2.10078        1.49891        0.91885
C          1.74805        1.65048       -0.11423
C          0.77481        2.61377       -0.17149
C         -0.53589        2.38329       -0.47174
N         -1.37786        2.87515       -0.98578
N         -1.12833        1.53256        0.30455
C         -1.34951        0.25738        0.23455
C         -2.68619       -0.22880        0.40130
C         -3.86306        0.53551        0.67946
N         -4.82532        1.10909        0.89802
C         -2.66017       -1.65048        0.20961
N         -3.19814       -2.61652        0.16757
N         -1.36504       -2.04440       -0.06425
C         -0.66205       -0.90171       -0.02885
C          0.76355       -0.98536       -0.30620
C          1.41224       -2.20482       -0.69370
N          1.26798       -2.91404       -1.57844
C          1.55627        0.21898       -0.13305
H          4.14487        1.72148        1.53820
H          1.06244        3.64143        0.04942
H         -2.32588        3.24788       -1.01931
H         -0.75841        3.65557       -1.19830
H         -4.20124       -2.58380        0.35416
H         -2.98739       -3.58570       -0.07185
