26
Coordinates from ORCA-job ./opt_b97-3c_parallel
N          2.49313        3.47500       -0.01563
C          2.88949        2.40262       -0.00597
C          2.59331        1.00094       -0.00280
C          3.83292        0.29272        0.00206
N          3.17503       -0.60366        0.00195
C          2.24368       -1.20786       -0.00205
C          1.76555       -2.47227       -0.06337
C          0.44118       -2.67105        0.02075
N         -0.91154       -2.70748        0.09953
C         -1.54832       -1.48461        0.09521
C         -2.90977       -1.56540        0.15874
C         -3.26543       -0.24377        0.06617
N         -4.36099       -0.08981        0.07396
C         -2.20306        0.63212        0.01423
C         -2.27842        2.06360       -0.04503
N         -2.33883        3.20484       -0.05956
C         -1.00180       -0.15185        0.02644
C          0.25381        0.46928       -0.01288
C          1.59141        0.07284       -0.00294
H          4.91549        0.49003        0.00407
H          2.45054       -3.31528       -0.01724
H          0.29289       -3.76103        0.03948
H         -3.45627       -2.35542       -0.35592
H         -4.55190        0.90888        0.00659
H         -5.25858       -0.56597        0.00836
H          0.18852        1.55046       -0.04238
