23
Coordinates from ORCA-job ./opt_b97-3c_parallel
N          3.68436        2.19697        0.01582
C          2.62603        1.76452        0.01703
C          1.85041        0.97155        0.01521
C          0.71778        1.70850        0.01605
N         -0.59582        2.06927        0.01326
C         -1.50728        1.03507        0.00682
C         -2.89828        1.32078       -0.01998
C         -3.58791        0.15224       -0.05064
N         -4.91424       -0.03097       -0.13968
C         -2.68693       -0.82658       -0.02091
C         -1.40415       -0.34233        0.00769
N         -0.50860       -1.35769        0.01007
C          0.88909       -1.38033        0.00985
N          1.48037       -2.61994        0.00331
C          2.85093       -2.44536       -0.00112
N          3.11299       -1.08804        0.00275
C          1.92241       -0.38799        0.00917
H          0.36608        2.75535        0.01154
H         -3.31124        2.32551       -0.02696
H         -5.56862        0.72048        0.07691
H         -5.34943       -0.92213        0.09499
H         -2.94934       -1.88397       -0.04921
H          3.71868       -3.12394       -0.00683
