26
Coordinates from ORCA-job ./opt_b97-3c_parallel
N         -4.12966        2.70458        0.00212
C         -3.69513        1.64751       -0.00325
C         -3.10970        0.34089       -0.00904
C         -3.96956       -0.80014       -0.00131
N         -3.25800       -1.63629       -0.00912
C         -2.17638       -1.43252        0.00519
C         -1.34613       -2.50932       -0.04711
C         -0.03012       -2.17966       -0.02515
N          1.26001       -1.72319       -0.00284
C          1.41680       -0.38327        0.01544
C          2.76807        0.08420        0.04937
C          4.00124       -0.64902        0.05705
N          5.05947       -1.07633       -0.01446
C          2.79989        1.44665        0.07716
N          3.82231        2.31740        0.14049
C          1.53221        1.83869        0.04806
C          0.66443        0.78406        0.01377
C         -0.76592        1.01160       -0.01050
C         -1.72161       -0.06819       -0.02129
H         -5.06972       -0.77207        0.00934
H         -1.68933       -3.54138        0.01930
H          0.52831       -3.12792       -0.02449
H          4.76406        2.02443       -0.11470
H          3.69658        3.28556       -0.14826
H          1.21825        2.88032        0.06725
H         -1.07419        2.05218       -0.00730
