27
Coordinates from ORCA-job ./opt_b97-3c_parallel
N          4.07923       -1.64386        0.00271
C          3.52818       -0.64727       -0.07258
C          2.78724        0.57176       -0.15299
C          3.40608        1.78069       -0.28449
N          2.37986        2.61778       -0.28359
C          1.14272        2.01431       -0.16783
N         -0.05631        2.52393       -0.10989
C         -1.31690        2.23799        0.06240
N         -1.32799        3.05921        0.80932
C         -1.99590        1.09892       -0.32029
C         -2.78639        1.40265       -1.04297
N         -3.91658        1.45813       -1.20180
C         -1.68943       -0.23705       -0.14113
N         -2.60189       -1.30027       -0.13684
C         -1.85616       -2.38596        0.03112
N         -2.67319       -3.13626        0.00296
C         -0.53834       -2.06361        0.15152
C          0.35040       -3.16324        0.36707
N          1.03156       -4.06026        0.55171
C         -0.39915       -0.70746        0.03464
N          0.58559       -0.19050        0.01875
C          1.36246        0.60387       -0.08226
H          4.47885        2.01704       -0.36829
H         -2.32316        3.06795        1.03644
H         -1.01333        4.02273        0.93508
H         -3.64310       -3.26466       -0.29355
H         -2.32927       -4.08051        0.19399
