24
Coordinates from ORCA-job ./opt_b97-3c_parallel
N          1.50629       -4.27660       -0.00041
C          1.60377       -3.13726       -0.00077
C          1.68180       -1.70648       -0.00080
C          2.92774       -1.15561       -0.00046
N          2.65106        0.13705       -0.00004
C          1.30311        0.46128        0.00005
C          0.95987        1.87205        0.00027
C          2.00958        2.85131        0.00035
N          2.81841        3.65769        0.00035
C         -0.36827        2.40615        0.00023
C         -1.58303        1.81056        0.00016
C         -2.36265        0.69994        0.00170
N         -3.67281        0.78865        0.00301
C         -4.09461       -0.42861        0.00244
C         -3.14811       -1.32962        0.00105
C         -1.99674       -0.63014        0.00057
C         -0.71120       -1.26958       -0.00061
C          0.58755       -0.78066       -0.00049
H          3.97943       -1.47859       -0.00064
H         -0.38505        3.49409        0.00021
H         -2.27396        2.65497       -0.00046
H         -5.18347       -0.58476        0.00320
H         -3.26473       -2.41058        0.00044
H         -0.81523       -2.34908       -0.00119
