25
Coordinates from ORCA-job ./opt_b97-3c_parallel
N         -2.44969       -2.17050        2.15808
C         -1.65821       -1.99565        1.35150
C         -1.35927       -1.39829        0.46610
C         -0.42373       -2.17282       -0.15825
N          0.43236       -1.41740       -0.76680
C          1.34397       -0.65329       -0.25714
C          2.69870       -0.81686       -0.05455
C          3.56738       -1.92820       -0.30162
N          3.55620       -2.48168       -1.30148
C          3.35773        0.28054        0.45216
C          2.35407        1.20041        0.55511
C          2.53316        2.55963        0.95725
N          2.62660        3.65525        1.26491
C          1.08786        0.66918        0.19061
N         -0.04534        1.40883        0.13504
C         -1.33397        1.05279       -0.07960
N         -2.30519        1.98539       -0.35304
C         -3.51791        1.32091       -0.45474
N         -4.53207        1.70748       -0.66243
N         -3.29472       -0.02490       -0.20337
C         -1.95291       -0.23201        0.05997
H          0.10230       -3.13025       -0.30214
H          4.34173        0.57023        0.08177
H         -4.84714        2.67878       -0.68078
H         -5.37684        1.14706       -0.78590
