26
Coordinates from ORCA-job ./opt_b97-3c_parallel
N          3.89279       -1.68728        0.16603
C          2.82657       -1.27869        0.08881
C          1.46126       -0.77121        0.00497
C          0.45887       -1.78722       -0.07128
N          0.91017       -3.08984       -0.14296
C         -0.94958       -1.80915       -0.08807
C         -1.98863       -0.87002       -0.01201
C         -3.08684       -1.00957       -0.00054
C         -4.00114        0.08550        0.07187
N         -3.40748        1.00850        0.10101
C         -2.13002        0.60420        0.04573
C         -1.12405        1.55546        0.00041
C          0.25948        1.65564       -0.04113
C          0.82733        2.93115       -0.06450
C          2.19900        2.79916       -0.03163
C          2.53389        1.45731        0.01244
C          1.37018        0.65273        0.00058
H          0.25276       -3.84985       -0.00848
H          1.89730       -3.27955       -0.00452
H         -1.35761       -2.81925       -0.15271
H         -3.47431       -2.02453       -0.03485
H         -5.08412        0.07982        0.09807
H         -1.56790        2.55043        0.00517
H          0.29760        3.88108       -0.08836
H          2.90866        3.62278       -0.03541
H          3.57010        1.12925        0.03789
