28
Coordinates from ORCA-job ./opt_b97-3c_parallel
N          2.39686       -4.43387        0.03096
C          1.78145       -3.47070        0.04326
C          0.98927       -2.27689        0.02707
C         -0.41655       -2.56648        0.06016
N         -1.61686       -1.89021        0.00835
C         -1.95445       -0.55745       -0.05114
C         -3.29029       -0.23463       -0.11092
C         -4.51814       -0.96863       -0.15607
N         -5.32572       -1.76271       -0.00268
C         -3.54225        1.11572       -0.15018
C         -2.27933        1.63368       -0.08965
C         -2.06065        3.04886       -0.09485
N         -1.91837        4.18243       -0.08560
C         -1.24042        0.65852       -0.03390
N          0.07568        1.05658        0.00619
C          1.18476        0.30796       -0.00390
C          2.36700        1.11368       -0.02696
C          2.55847        2.53697       -0.02816
N          2.80704        3.65099        0.03920
C          3.48001        0.33772       -0.06561
N          4.79081        0.63150       -0.13223
C          3.03101       -0.90800       -0.05172
C          1.65726       -0.98955       -0.01418
H         -0.94072       -3.53377        0.09128
H         -4.35466        1.56251        0.42095
H          5.49175       -0.04758        0.15795
H          5.12274        1.56308        0.11347
H          3.70309       -1.76271       -0.08814
