26
Coordinates from ORCA-job ./opt_b97-3c_parallel
N          4.85603       -0.14275       -1.66231
C          3.96879        0.24476       -1.05564
C          2.84363        0.68775       -0.28975
C          3.23650        1.94239        0.06543
N          2.03913        2.45203        0.24128
C          1.11323        1.44133        0.13635
C         -0.25079        1.91639        0.19936
C         -1.41648        1.06757        0.07774
N         -2.64417        1.48293        0.09883
C         -3.61586        0.63283       -0.04608
N         -4.55190        1.22261       -0.01139
C         -2.90517       -0.54463       -0.15995
C         -3.68430       -1.73639       -0.33014
N         -4.77087       -1.99019       -0.58081
C         -1.49967       -0.29233       -0.08582
N         -0.70058       -1.30137       -0.18157
C          0.38573       -1.78466        0.32791
C          1.57201       -1.10386        0.45646
C          2.42988       -2.06143        1.08528
N          3.31754       -2.74413        0.85991
C          1.60789        0.17812       -0.01255
H          4.00889        2.72438        0.13495
H         -0.41675        2.98391        0.32236
H         -5.11074        2.06983        0.09154
H         -5.21110        0.47621       -0.24144
H         -0.02035       -2.78238        0.55877
