26
Coordinates from ORCA-job ./opt_b97-3c_parallel
N          3.71557        3.20040       -0.05314
C          2.82266        2.48766       -0.04298
C          1.73778        1.55177       -0.02556
C          0.44162        2.17779       -0.03439
N         -0.90591        1.84945       -0.00714
C         -1.59389        0.69650        0.04255
C         -2.97325        0.64740        0.08528
C         -3.95208        1.69009        0.09172
N         -4.71256        2.54263        0.07782
C         -3.54178       -0.60562        0.13757
C         -2.41413       -1.37408        0.11951
C         -2.74574       -2.76587        0.17802
N         -2.24116       -3.77866        0.01592
C         -1.19060       -0.65900        0.06201
N         -0.03281       -1.31722        0.03838
C          1.24911       -0.97463        0.00362
C          2.12086       -2.09693       -0.00433
C          3.44831       -1.57161       -0.02386
N          4.51503       -1.85853       -0.03420
N          3.38453       -0.23011       -0.03087
C          2.04002        0.13744       -0.01566
H          0.13127        3.23396       -0.05364
H         -4.40698       -0.85535       -0.47623
H          1.83669       -3.14570        0.00698
H          5.37207       -1.30479       -0.02878
H          4.81224       -2.83443       -0.01724
