27
Coordinates from ORCA-job ./opt_b97-3c_parallel
N         -4.39695        2.31179        0.02632
C         -3.81360        1.33164        0.08244
C         -3.09999        0.09373        0.10699
C         -3.69532       -1.12664        0.23867
N         -2.68341       -1.97570        0.08904
C         -1.44299       -1.38921       -0.09592
N         -0.28213       -1.86863       -0.36248
C          0.95182       -2.09850       -0.09064
N          0.80968       -3.19352       -0.15134
C          1.95211       -1.09577        0.13052
C          3.29014       -1.54637        0.37854
N          4.34496       -1.94015        0.56632
C          1.63121        0.32196        0.00734
C          2.69667        1.27385        0.08336
C          2.20489        2.52755       -0.07152
N          2.87628        3.68748       -0.07600
C          0.89382        2.41108       -0.23980
C          0.49488        1.10284       -0.17763
N         -0.85968        1.09216       -0.19521
C         -1.69331       -0.00649       -0.04603
H         -4.77764       -1.22963        0.41477
H          0.47850       -4.14014       -0.33417
H          1.79317       -3.18465       -0.42427
H          3.74321        1.02458        0.23007
H          3.77737        3.76518        0.39371
H          2.38408        4.57183        0.04011
H          0.23044        3.26125       -0.40214
