26
Coordinates from ORCA-job ./opt_b97-3c_parallel
N          2.61733        3.62411       -0.31408
C          1.94247        2.70491       -0.24446
C          1.13897        1.51586       -0.15929
C         -0.25325        1.82818       -0.25108
N         -1.45232        1.17616       -0.10026
C         -1.83462       -0.14103        0.01475
C         -3.24229       -0.38923        0.13860
C         -4.25520        0.61863        0.23243
N         -5.07021        1.41290        0.33695
C         -3.42549       -1.72794        0.09836
C         -2.24398       -2.30132       -0.05217
C         -1.23557       -1.37513       -0.09578
C          0.13045       -1.79057       -0.21290
C          1.36088       -1.05431       -0.09526
N          2.44888       -1.82883       -0.08131
C          3.52387       -0.96737        0.02699
N          4.48855       -1.50559        0.04280
C          3.17089        0.34954        0.13466
C          1.80759        0.29981       -0.01130
H         -0.83789        2.75730       -0.33919
H         -4.38264       -2.24145        0.15844
H         -2.09957       -3.37689       -0.12780
H          0.25164       -2.86842       -0.28998
H          5.39833       -1.04525        0.07877
H          4.68180       -2.50672        0.01622
H          3.63029        0.96893        0.90453
