28
Coordinates from ORCA-job ./opt_b97-3c_parallel
N          4.23537       -2.56549        0.04661
C          3.20756       -2.06563        0.02690
C          1.94282       -1.38865        0.00353
C          0.83501       -2.29903       -0.00607
N         -0.54184       -2.26940       -0.06653
C         -1.50656       -1.28671       -0.08681
C         -2.75575       -1.83996       -0.14363
C         -3.56370       -0.73071       -0.08383
N         -4.64869       -0.94067       -0.10925
C         -2.88672        0.46718       -0.01600
C         -3.40913        1.80118        0.04659
N         -3.78416        2.87842        0.09832
C         -1.49773        0.12867       -0.01540
C         -0.50517        1.16389        0.03812
C          0.92478        1.07286        0.01055
C          1.60237        2.32759        0.01686
C          3.00261        2.06115       -0.00506
N          3.94892        2.62908       -0.01003
N          3.18122        0.69154       -0.01915
C          1.93852        0.06044       -0.01234
H          0.83085       -3.40011       -0.00301
H         -2.99724       -2.75330        0.40101
H         -5.20913       -0.09207       -0.04230
H         -5.30312       -1.72124       -0.09765
H         -0.88398        2.18060        0.07403
H          1.14158        3.31120        0.03369
H          4.01934        3.64602        0.02695
H          4.90757        2.28091       -0.02665
