23
Coordinates from ORCA-job ./opt_b97-3c_parallel
N          4.77059       -0.81333        0.45134
C          3.85949       -0.14074        0.30160
C          2.68664        0.65520        0.11934
C          2.63512        2.01317        0.24421
N          1.36095        2.31182        0.01133
C          0.54028        1.22675       -0.23113
C         -0.76561        1.27538       -0.62364
C         -1.80195        0.56845       -0.09695
N         -3.10458        0.92496        0.17064
C         -4.31184        0.51430        0.49047
C         -3.66880       -0.63777        0.37412
C         -2.37797       -0.65167        0.07987
N         -1.49276       -1.61419       -0.08969
C         -0.12674       -1.70866       -0.25218
N          0.09523       -2.78042       -0.39031
N          1.17855       -1.26696       -0.31310
C          1.41124        0.09899       -0.15769
H          3.41717        2.75871        0.45495
H         -1.00125        1.94015       -1.45214
H         -5.27682        1.00249        0.69574
H         -4.20476       -1.57186        0.53182
H         -0.63493       -3.49026       -0.43338
H          0.97447       -3.27546       -0.53940
