22
Coordinates from ORCA-job ./opt_b97-3c_parallel
N         -2.42403        3.39793        0.00522
C         -2.39560        2.25594        0.00702
C         -2.31412        0.82491        0.00768
C         -3.50525        0.03742        0.01216
N         -2.77742       -0.80069        0.01036
C         -1.78966       -1.29915        0.00656
C         -1.26641       -2.62718        0.00236
C          0.03536       -3.05335       -0.00346
N          1.30375       -2.63465       -0.00568
C          1.79615       -1.34487       -0.00336
N          3.15027       -1.15481       -0.00384
C          3.31869        0.21753       -0.00166
C          2.17386        0.97519       -0.00091
C          2.52972        2.02166       -0.00263
N          2.47016        3.16280       -0.00746
C          1.24674       -0.03046       -0.00098
N         -0.02548        0.51490        0.00107
C         -1.25034       -0.03743        0.00469
H         -4.55401        0.37225        0.01544
H         -2.03927       -3.39111        0.00359
H          0.05572       -4.15421       -0.00639
H          4.41988        0.26549       -0.00083
