27
Coordinates from ORCA-job ./opt_b97-3c_parallel
N         -2.34821        3.27951        0.30179
C         -1.55035        2.46574        0.20907
C         -0.50805        1.48911        0.11524
C          0.77750        2.12050        0.18930
N          2.09500        1.78928       -0.04363
C          2.77680        0.60522       -0.20065
C          4.12251        0.67645       -0.38221
C          4.61864       -0.54019       -0.20985
C          3.66875       -1.41888        0.07789
C          2.47897       -0.75489        0.10121
C          1.33111       -1.47626        0.31897
C         -0.03808       -1.07368        0.17570
C         -0.98358       -2.14056        0.16230
C         -2.30369       -1.83000       -0.00742
N         -3.22014       -2.80624        0.10465
C         -2.12489       -0.47017       -0.07760
C         -3.37172        0.18803       -0.34277
N         -4.38063        0.67559       -0.57044
C         -0.77970        0.06154        0.03621
H          1.05228        3.18432        0.25082
H          4.69176        1.57059       -0.62695
H          5.67436       -0.78609       -0.29350
H          3.82238       -2.47913        0.26665
H          1.47386       -2.54058        0.48547
H         -0.65803       -3.17289        0.25663
H         -3.00292       -3.75383       -0.19669
H         -4.19266       -2.61599       -0.13110
