28
Coordinates from ORCA-job ./opt_b97-3c_parallel
N          5.29561        1.26804        0.25118
C          4.49561        0.45191        0.23370
C          3.24786       -0.20762       -0.00814
C          3.44248       -1.40435       -0.75917
N          2.34035       -1.47400       -0.60128
C          1.27417       -1.29828       -0.33002
C         -0.10281       -1.57531       -0.01494
C         -1.16141       -0.58495        0.15044
C         -2.50473       -1.05300        0.32802
C         -2.89377       -2.42346        0.48878
N         -3.18613       -3.52401        0.58833
C         -3.34935        0.00660        0.21272
N         -4.68657        0.03863        0.33318
C         -2.60894        1.07460       -0.05692
C         -1.26844        0.78206       -0.07480
C         -0.34114        1.78266       -0.35867
C         -0.70902        3.01919       -0.98673
N         -1.02295        4.00918       -1.46307
C          0.99754        1.68666        0.14613
C          1.36488        0.76700        1.07474
C          1.90932       -0.15735        0.24053
H          4.07036       -2.13603       -1.28902
H         -0.37910       -2.62288       -0.05151
H         -5.22489        0.79209       -0.08970
H         -5.22828       -0.82102        0.25863
H         -3.03192        2.06967       -0.18213
H          1.66469        2.51580       -0.07634
H          1.87140        1.06796        1.98871
