26
Coordinates from ORCA-job ./opt_b97-3c_parallel
N          4.66257        1.37559       -0.27847
C          3.80778        0.63444       -0.11826
C          2.70391       -0.25716        0.07555
C          2.89396       -1.54259        0.66354
N          1.80280       -1.58320        0.44055
C          0.73880       -1.38975        0.18474
C         -0.63236       -1.62361       -0.18206
C         -1.67416       -0.70160       -0.21436
N         -2.93863       -1.20801       -0.41618
C         -3.85519       -0.20487       -0.13753
N         -4.93794       -0.39070       -0.22269
N         -3.18841        0.93560        0.27896
C         -1.84415        0.66613        0.19799
C         -0.92082        1.71090        0.57474
C          0.41243        1.73930        0.04817
N          0.97314        2.66035        0.29359
C          0.86587        0.88078       -0.90095
C          1.37251       -0.18008       -0.21741
H          3.70838       -2.15820        1.07539
H         -0.89229       -2.67137       -0.30549
H         -5.42905       -1.28344       -0.25077
H         -5.65471        0.33361       -0.24720
H         -1.30943        2.59252        1.08130
H          0.74387        3.65172        0.36152
H          1.98954        2.59988        0.35067
H          1.32665        1.23243       -1.82406
