31
Coordinates from ORCA-job ./opt_b97-3c_parallel
N         -5.62333        0.85483        0.33335
C         -4.48598        0.96430        0.36164
C         -3.06194        1.12379        0.43376
C         -2.57388        2.33341        1.01050
N         -1.61554        1.81825        0.77394
C         -0.78025        1.15263        0.46144
C          0.14294        1.33308       -0.61149
C          1.34355        0.61138       -0.36390
C          2.59642        1.14377       -0.53707
C          2.94766        2.42286       -1.08371
N          3.03098        3.51378       -0.75386
C          3.51717        0.17977        0.01680
N          4.61785        0.29544        0.04735
C          2.81380       -0.91491        0.49007
C          3.33718       -2.12450        1.05748
N          3.75448       -3.10189        1.47780
C          1.41644       -0.66639        0.25424
C          0.43159       -1.73024        0.37034
C         -0.84843       -1.78418       -0.34787
N         -0.92498       -2.87183       -0.56538
C         -1.86798       -0.83554       -0.53262
C         -3.07721       -1.30565       -1.16324
N         -3.97508       -1.94366       -1.46982
C         -1.90225        0.45831        0.12888
H         -3.15438        3.18040        1.40631
H          0.19844        2.31415       -1.07452
H          5.19002        1.13656       -0.00361
H          5.23193       -0.46459        0.33533
H          0.86548       -2.67182        0.71379
H         -1.89886       -3.17268       -0.58258
H         -0.36220       -3.70060       -0.74878
