24
Coordinates from ORCA-job ./opt_b97-3c_parallel
N         -4.16851        1.87103        0.47977
C         -3.46867        0.97893        0.33575
C         -2.59317       -0.13082        0.11517
C         -3.03791       -1.41398       -0.01259
N         -1.93876       -2.12177       -0.25001
C         -0.77011       -1.37909       -0.26753
C          0.48588       -1.82183       -0.54958
C          1.36642       -1.90033        0.48594
N          2.25845       -2.43563        0.84827
N          1.93765       -0.81368        0.08313
C          2.04106        0.47010       -0.02816
C          3.26144        1.07562       -0.05991
C          2.87072        2.39319       -0.02221
N          1.51164        2.65210       -0.00029
C          0.96831        1.40183       -0.02006
C         -0.46618        1.22216        0.05214
C         -1.18132       -0.04036       -0.01306
H         -4.07630       -1.77344        0.04534
H          0.64214       -2.43454       -1.43651
H          1.91651       -3.35632        0.58133
H          3.22017       -2.36773        0.52320
H          4.02862        0.74748       -0.75682
H          3.22277        3.43462        0.01278
H         -1.05337        2.12803        0.16067
