31
Coordinates from ORCA-job ./opt_b97-3c_parallel
N         -4.72277       -0.63064       -2.23192
C         -4.04031       -0.12151       -1.46969
C         -3.18975        0.47444       -0.48815
C         -3.72425        1.05241        0.70704
N         -2.81338        1.35937        1.24531
C         -1.85186        1.30073        0.70336
C         -0.96948        2.43418        0.75303
C          0.25175        2.51676       -0.04505
N          0.36562        3.62240       -0.08801
C          1.14159        1.50206       -0.44281
C          2.34655        2.01095       -1.04714
N          3.14705        2.45459       -1.73232
C          1.12006        0.07040       -0.13016
C          2.31473       -0.72340       -0.03344
C          3.73911       -0.53711       -0.07254
N          4.52931       -0.09059        0.62211
C          2.15241       -2.06219        0.27380
N          2.86193       -3.21159        0.27335
C          0.77707       -2.08843        0.38989
C          0.03141       -3.29218        0.63073
N         -0.57771       -4.24606        0.79022
C          0.13779       -0.83026        0.14440
C         -1.28742       -0.72956        0.03358
C         -1.75034        0.51650       -0.48907
H         -4.74434        1.18629        1.09746
H         -1.34825        3.30100        1.30589
H          1.30664        3.90541       -0.35857
H         -0.23569        4.42924       -0.24646
H          2.47013       -4.05763        0.68420
H          3.86132       -3.19604        0.46937
H         -1.92640       -1.58418        0.23673
