23
Coordinates from ORCA-job ./opt_b97-3c_parallel
N          3.32659       -2.70325        0.01477
C          2.88174       -1.65066       -0.00921
C          2.33668       -0.32625       -0.00342
C          3.20554        0.72365       -0.00242
N          2.41752        1.78708       -0.00003
C          1.07458        1.46059        0.00113
C          0.17552        2.58275        0.00271
C         -1.24967        2.55892        0.00323
C         -2.11526        1.51915        0.00352
C         -2.32600        0.18026        0.00281
C         -3.61499       -0.42305        0.00343
C         -3.40158       -1.83547        0.00220
N         -2.04023       -2.08824        0.00091
C         -1.46311       -0.87707        0.00132
C         -0.02450       -0.95293       -0.00034
C          0.95233        0.03418       -0.00042
H          4.29739        0.85918       -0.00282
H          0.62968        3.56950        0.00279
H         -1.68074        3.55591        0.00376
H         -3.10177        1.97942        0.00478
H         -4.57467        0.08379        0.00449
H         -4.11410       -2.67368        0.00207
H          0.33867       -1.97635       -0.00137
