25
Coordinates from ORCA-job ./opt_b97-3c_parallel
N          2.86385        3.13346       -0.00208
C          1.98612        2.40285       -0.00137
C          0.91931        1.44425       -0.00131
C         -0.37258        2.06086        0.00133
N         -1.69918        1.69363        0.00521
C         -2.39729        0.50785        0.00425
C         -3.75346        0.60781        0.00837
C         -4.24730       -0.62100        0.00364
C         -3.28550       -1.53200       -0.00355
C         -2.08680       -0.88444       -0.00381
C         -0.85956       -1.61915       -0.01012
C          0.50794       -1.18655       -0.00725
C          1.46354       -2.24461       -0.00844
C          2.76136       -1.65529       -0.00220
N          3.82610       -1.94608        0.00227
N          2.61200       -0.28295       -0.00024
C          1.25587        0.03586       -0.00274
H         -0.67062        3.12063        0.00421
H         -4.33360        1.52848        0.01452
H         -5.30997       -0.85276        0.00548
H         -3.43540       -2.60952       -0.00818
H         -0.99843       -2.69691       -0.01443
H          1.24872       -3.30951       -0.01139
H          4.15450       -2.90836        0.08310
H          4.66306       -1.36311       -0.01557
