31
Coordinates from ORCA-job ./opt_b97-3c_parallel
N          3.94430       -2.75589       -0.29678
C          3.44380       -1.73067       -0.22467
C          2.81441       -0.45060       -0.08803
C          3.34427        0.82129       -0.09621
N          4.38408        1.17671       -0.21635
C          2.42617        1.82485        0.10667
C          1.27265        1.12231        0.31882
N          0.21139        1.59469        0.87535
C         -0.81379        1.96263        0.19377
N         -0.66868        3.06236        0.20944
C         -1.89000        1.11299       -0.24260
C         -3.05660        1.77345       -0.76630
N         -3.99860        2.29594       -1.14643
C         -1.93379       -0.32912        0.01169
C         -3.13005       -0.97237       -0.13668
C         -2.70079       -2.20784        0.25318
N         -3.45158       -3.01799        0.27223
C         -1.40887       -2.53471        0.54861
C         -0.89432       -1.28452        0.35961
C          0.50136       -1.27509        0.32276
C          1.41944       -0.26224        0.13256
H          4.95789        0.34841       -0.06656
H          4.97621        1.86521       -0.67722
H          2.41473        2.71304       -0.52346
H         -1.58417        3.17549        0.64024
H         -0.03697        3.70168        0.68632
H         -3.72216       -0.85411       -1.04360
H         -3.25181       -4.01014        0.38566
H         -4.32396       -2.95189       -0.24911
H         -0.94228       -3.41473        0.10622
H          0.95431       -2.25814        0.41361
