26
Coordinates from ORCA-job ./opt_b97-3c_parallel
N         -4.68429       -1.38339        1.37071
C         -3.91669       -0.66711        0.91918
C         -2.96529        0.21150        0.31185
C         -3.34635        1.53078       -0.08367
N         -2.38999        1.87726       -0.50206
C         -1.43392        1.36650       -0.31091
C         -0.15309        2.04368       -0.24393
C          1.14150        1.42927       -0.01165
C          2.28975        2.15429        0.05244
C          3.30445        1.32546        0.21070
C          2.82939        0.05198        0.25057
C          3.70864       -1.07371        0.39156
N          4.43110       -1.95479        0.48356
C          1.38852        0.01355        0.10544
N          0.93135       -0.99676        0.10102
C          0.13451       -1.68744       -0.22406
N          0.51885       -2.69795       -0.44302
C         -1.25822       -1.38714       -0.37555
C         -1.58476       -0.03182       -0.01665
H         -4.31475        2.04588        0.00338
H         -0.16037        3.12052       -0.38810
H          2.36305        3.23680       -0.02014
H          4.35018        1.61472        0.28846
H          1.48701       -2.97946       -0.29938
H         -0.03325       -3.55066       -0.50393
H         -1.96442       -2.14189       -0.71053
