28
Coordinates from ORCA-job ./opt_b97-3c_parallel
N         -3.73216       -1.53569        0.53513
C         -3.85083       -0.39849        0.51959
C         -2.94737        0.68822        0.29197
C         -3.28579        2.04652        0.57399
N         -2.25151        2.22037        0.19980
C         -1.24258        2.05026       -0.23744
C         -0.02480        2.36403       -0.76467
C          1.14812        2.29694       -0.06560
N          1.33509        3.37773        0.08724
C          1.98099        1.13634        0.19861
C          3.30289        1.32021        0.72356
N          4.36465        1.42037        1.13216
C          1.52761       -0.22123       -0.06764
N          2.22488       -1.30550        0.07700
C          1.73477       -2.48767       -0.13371
N          2.55850       -3.20658        0.03663
C          0.44021       -2.12053       -0.43657
C         -0.45904       -3.20792       -0.69614
N         -0.49474       -4.31731       -0.41890
C          0.28373       -0.69818       -0.40954
N         -0.89702       -0.23900       -0.65226
C         -1.68238        0.69496       -0.21587
H         -4.21650        2.47518        0.97851
H          0.02032        2.54871       -1.83870
H          2.26547        3.77392        0.21994
H          0.67369        4.12020        0.31578
H          1.99718       -4.06084        0.04347
H          3.53243       -3.50860        0.06083
