30
Coordinates from ORCA-job ./opt_b97-3c_parallel
N          5.15439        1.35446        0.35539
C          4.01203        1.32045        0.36862
C          2.57773        1.32101        0.39396
C          1.93472        2.50871        0.85221
N          1.05324        1.86910        0.62240
C          0.30701        1.09996        0.32423
C         -0.64816        0.93501       -0.72394
C         -1.69974        0.06282       -0.32550
C         -3.01679        0.33686       -0.53511
C         -3.69145        1.38444       -1.24279
N         -3.97746        2.47370       -1.05011
C         -3.61510       -0.69301        0.26051
N         -4.67775       -0.90798        0.47899
C         -2.80235       -1.55658        0.95559
C         -1.59021       -1.07994        0.52179
C         -0.39900       -1.90138        0.64747
C          0.73512       -1.85358       -0.27860
N          0.93927       -2.92954       -0.46905
C          1.65170       -0.81202       -0.49154
C          2.90138       -1.14202       -1.13177
N          3.87770       -1.66311       -1.41934
C          1.51449        0.50437        0.10832
H          2.36822        3.46015        1.19510
H         -0.89514        1.80604       -1.32321
H         -5.26316       -0.10933        0.23936
H         -5.30342       -1.65609        0.77136
H         -2.99920       -2.62870        0.97691
H         -0.63782       -2.85628        1.12301
H          0.52979       -3.84994       -0.61724
H          1.94419       -3.07234       -0.37172
