25
Coordinates from ORCA-job ./opt_b97-3c_parallel
N          3.15919        4.01299       -0.04349
C          2.44094        3.12352       -0.04723
C          1.50364        2.03825       -0.04436
C          0.12175        2.49536       -0.07134
N         -1.18532        2.00278       -0.01326
C         -1.60333        0.73021        0.04552
C         -3.00574        0.50337        0.15393
C         -4.14531        1.36734        0.22778
N         -4.82288        2.26367        0.01732
C         -3.43239       -0.79554        0.21914
C         -2.18903       -1.36825        0.11751
C         -2.10808       -2.79822        0.11629
N         -2.06918       -3.94037        0.09532
C         -1.05010       -0.49905        0.00752
N          0.14235       -0.94190       -0.11906
C          1.34469       -0.51617       -0.05758
C          2.36087       -1.51786       -0.03391
C          2.65429       -2.91620       -0.04456
N          2.57130       -4.05354        0.01932
C          3.60573       -0.82118        0.00924
N          3.39129        0.49869        0.01646
C          2.01699        0.67399       -0.02067
H         -0.22713        3.53901       -0.09125
H         -4.26046       -1.15489       -0.39002
H          4.69327       -0.98717        0.03584
