22
Coordinates from ORCA-job ./opt_b97-3c_parallel
N         -4.29340        1.84935       -0.00692
C         -3.24426        1.39579        0.00946
C         -1.91466        0.86348        0.00817
C         -0.92163        1.77958       -0.06035
N          0.20569        2.36676       -0.11800
C          1.26630        1.64687       -0.03133
C          2.45464        2.43730        0.01801
C          3.57921        1.57127        0.08885
N          3.11791        0.27671        0.08733
C          1.77303        0.36672        0.02224
C          1.03875       -0.91639        0.01572
C          1.89685       -2.08622       -0.00021
N          2.52675       -2.95348       -0.39955
C         -0.33914       -1.24492        0.03988
N         -0.71817       -2.58118        0.08687
C         -2.09492       -2.69567        0.12933
N         -2.63809       -1.42991        0.10713
C         -1.59571       -0.53570        0.05429
H         -1.07769        2.86870       -0.10745
H          2.50167        3.52225       -0.00130
H          4.67264        1.68145        0.14041
H         -2.69316       -3.61826        0.17501
