28
Coordinates from ORCA-job ./opt_b97-3c_parallel
N         -4.41322       -1.25867       -0.20937
C         -3.35223       -1.49258        0.14404
C         -2.00471       -1.75725        0.54356
C         -1.77364       -2.91693       -0.13515
N         -0.64981       -2.75457       -0.79893
C         -0.17580       -1.46090       -0.83047
N          1.08304       -1.61093       -0.55741
C          2.02155       -1.22157        0.25466
N          2.39301       -2.25252        0.39441
C          2.42917        0.15185        0.44845
C          3.78547        0.42000        0.81381
N          4.88043        0.60979        1.07649
C          1.55640        1.21000       -0.02749
C          1.97568        2.41283       -0.50913
C          0.92188        3.10153       -0.91874
C         -0.21300        2.40187       -0.64580
C         -1.54897        2.84468       -0.90022
N         -2.63199        3.15273       -1.09065
C          0.11070        1.15942        0.01285
C         -0.77960        0.28766        0.61774
C         -1.25947        0.78785        1.48905
N         -1.25989        0.62207        2.62151
C         -1.01296       -0.92693        0.09450
H         -2.15681       -3.94947       -0.12523
H          3.35641       -1.91937        0.43680
H          2.39028       -3.16041        0.85856
H          3.00918        2.74548       -0.59257
H          0.95600        4.09454       -1.36332
