23
Coordinates from ORCA-job ./opt_b97-3c_parallel
N         -4.01004       -2.31733        0.05960
C         -3.03837       -1.71747        0.03158
C         -1.79200       -1.00555        0.00153
C         -0.66998       -1.90217       -0.00886
N          0.70691       -1.87130       -0.09113
C          1.65541       -0.87774       -0.11485
C          2.92307       -1.37553       -0.18427
C          3.67869       -0.23181       -0.08015
N          4.75211        0.03092       -0.05485
N          2.93211        0.93315        0.00942
C          1.62251        0.52810       -0.00869
C          0.61271        1.53537        0.06209
C         -0.81662        1.44129        0.01349
N         -1.47116        2.64281        0.02880
C         -2.81823        2.33816       -0.01031
N         -2.98309        1.04850       -0.04539
C         -1.83367        0.44460       -0.02759
H         -0.75343       -3.00041       -0.00350
H          3.20470       -2.28891        0.33723
H          5.49667       -0.66637       -0.03824
H          5.21787        0.93766       -0.01452
H          0.99411        2.55217        0.11742
H         -3.69243        3.00752       -0.01337
