25
Coordinates from ORCA-job ./opt_b97-3c_parallel
N         -2.26854       -3.44093       -0.00879
C         -2.43294       -2.30972       -0.00890
C         -2.58563       -0.88655       -0.00762
C         -3.81001       -0.28377       -0.00505
N         -3.54292        1.01576        0.00025
C         -2.18758        1.28171        0.00069
C         -1.81576        2.67178        0.00822
C         -0.49666        3.22024        0.00937
C          0.71473        2.61291       -0.00480
C          1.42908        1.46245        0.00868
N          2.61668        0.94538        0.00731
C          3.29890       -0.15526        0.00443
N          4.40132       -0.06564        0.00561
C          2.06437       -0.76437        0.00153
C          2.16356       -2.19598       -0.00360
N          2.85769       -3.10435       -0.00101
C          0.97598        0.17095        0.00194
N         -0.20096       -0.47052       -0.00488
C         -1.49732        0.03152       -0.00499
H         -4.82524       -0.70731       -0.00593
H         -2.62907        3.39230        0.01339
H         -0.50089        4.30697        0.01509
H          1.44902        3.41597       -0.02013
H          5.25863        0.48650        0.00433
H          4.69381       -1.04466        0.00243
