26
Coordinates from ORCA-job ./opt_b97-3c_parallel
N          3.53316       -0.19362        2.22582
C          2.77906        0.33042        1.54635
C          1.85178        0.96359        0.66293
C          2.00342        2.32169        0.24520
N          1.11490        2.29996       -0.40635
C          0.29769        1.58285       -0.58922
C         -1.00440        1.81232       -0.90126
C         -1.89062        1.71027        0.12923
N         -2.32752        2.68198        0.41594
C         -2.42388        0.50294        0.71174
C         -2.01735       -0.81976        0.28475
C         -2.90411       -1.89785        0.52854
C         -2.31933       -3.02373       -0.14057
N         -1.11072       -2.66003       -0.72628
C         -0.97045       -1.36248       -0.42294
C          0.32067       -0.79282       -0.73362
C          1.47658       -1.29668       -1.41238
N          2.51691       -1.46072       -1.85778
C          0.71412        0.36203        0.02756
H          2.79297        3.02713        0.54505
H         -1.33963        1.79226       -1.93639
H         -1.90484        3.60244        0.30856
H         -3.31945        2.78563        0.20918
H         -3.28167        0.58649        1.37451
H         -3.85945       -1.86587        1.04256
H         -2.64685       -4.06684       -0.26327
