27
Coordinates from ORCA-job ./opt_b97-3c_parallel
N         -4.91421       -1.68827       -1.18311
C         -4.16054       -0.96287       -0.72441
C         -3.24065       -0.05320       -0.11702
C         -3.70600        1.17613        0.23632
N         -2.82712        2.12151        0.48165
C         -1.69138        1.35242        0.35680
C         -0.46484        2.10069        0.36668
C          0.86902        1.58047        0.12049
C          1.87856        2.57244       -0.07956
C          3.14996        2.12436       -0.32617
C          2.88833        0.77788       -0.25533
C          4.17891        0.21412       -0.52682
N          4.73975       -0.33042       -1.36093
C          1.54168        0.38268        0.02560
C          1.28658       -1.03474        0.23586
C          2.16359       -2.16893        0.26385
N          2.74208       -3.09884       -0.06400
C         -0.01639       -1.58369        0.49429
N         -0.70441       -2.42212        0.71733
N         -1.11103       -0.95519        0.27559
C         -1.90701        0.03758        0.13803
H         -4.72152        1.59994        0.25633
H         -0.56075        3.17886        0.46277
H          1.62723        3.62894       -0.04375
H          3.99193        2.58147        0.19392
H         -1.47293       -2.87946        1.20477
H          0.15479       -2.82930        1.08119
