23
Coordinates from ORCA-job ./opt_b97-3c_parallel
N          3.94174       -2.00244        0.49461
C          3.33608       -1.04546        0.33883
C          2.53463        0.12196        0.13839
C          3.08005        1.37208        0.14511
N          2.03958        2.15609       -0.11151
C          0.83320        1.49798       -0.24817
C         -0.32877        2.04772       -0.67118
C         -1.44511        1.76714        0.03649
N         -2.18182        2.45675        0.48453
N         -2.33662        0.83550        0.35719
C         -2.19478       -0.47123        0.08066
N         -3.27013       -1.32423        0.13799
C         -2.80333       -2.60219       -0.11963
N         -1.42877       -2.56254       -0.28880
C         -1.01784       -1.25429       -0.17781
C          0.35570       -1.03156       -0.15932
C          1.12317        0.12173       -0.06773
H          4.12475        1.69856        0.26453
H         -0.30789        2.90287       -1.34481
H         -3.14927        2.77961        0.49723
H         -1.60892        3.26723        0.71786
H         -3.30761       -3.57990       -0.17514
H          0.93536       -1.95047       -0.18316
