25
Coordinates from ORCA-job ./opt_b97-3c_parallel
N          4.04671       -2.33607       -0.01910
C          3.07099       -1.73984       -0.01411
C          1.82089       -1.03436       -0.00681
C          0.69838       -1.92872       -0.00848
N         -0.67875       -1.86604        0.00845
C         -1.57868       -0.82715        0.02571
C         -2.95565       -1.18075        0.04859
C         -3.71267       -0.05761        0.05946
N         -5.04833        0.06114        0.08842
C         -2.86111        0.96075        0.04172
C         -1.55425        0.54240        0.02217
C         -0.60052        1.52899        0.00691
C          0.83061        1.43979       -0.00061
C          1.51964        2.68683       -0.00296
C          2.91348        2.40000       -0.00454
N          3.08288        1.03076       -0.00482
C          1.83519        0.41642       -0.00207
H          0.72008       -3.02893       -0.01402
H         -3.31390       -2.20545        0.05452
H         -5.63818       -0.73034       -0.16144
H         -5.49703        0.91037       -0.24920
H         -3.17227        2.00381        0.04828
H         -0.95889        2.55506        0.00705
H          1.07495        3.67707       -0.00137
H          3.89634        2.89426       -0.00558
