26
Coordinates from ORCA-job ./opt_b97-3c_parallel
N         -5.34299        0.80779       -0.41176
C         -4.39603        0.18907       -0.24708
C         -3.22909       -0.62339       -0.06829
C         -3.53282       -1.95120       -0.04039
N         -2.34278       -2.51904        0.04821
C         -1.30513       -1.60821        0.07301
C          0.00267       -2.18133        0.14039
C          1.27232       -1.53479        0.08197
N          2.41911       -2.14696        0.06370
C          3.65110       -1.74208       -0.01581
C          3.20224       -0.45695       -0.05015
C          4.57202       -0.03568       -0.13428
N          5.35700        0.67748       -0.56297
C          1.78804       -0.27549        0.01228
C          1.26397        1.07128        0.01447
C          2.20476        2.16222       -0.00950
N          2.79388        3.05839        0.38691
C         -0.02973        1.57464        0.04741
C         -1.30330        1.00313        0.02978
C         -2.18593        2.14281        0.05295
N         -2.73785        3.08283        0.39895
C         -1.82949       -0.28674        0.00975
H         -4.42159       -2.59969       -0.06851
H          0.04159       -3.26652        0.18515
H          4.19161       -2.70093        0.00345
H         -0.02123        2.67069        0.07031
