26
Coordinates from ORCA-job ./opt_b97-3c_parallel
N         -3.23332        3.69485       -0.00071
C         -3.18161        2.55263       -0.00179
C         -2.49076        1.29600       -0.00050
C         -3.55232        0.33560       -0.00030
N         -3.14581       -0.68412        0.00069
C         -1.80375       -0.58132        0.00060
C         -1.01556       -1.76513        0.00056
C         -1.75507       -3.01792        0.00044
N         -2.31912       -4.01275        0.00031
C          0.37530       -2.00851        0.00051
C          1.59086       -1.29316        0.00119
C          2.73584       -2.18562        0.00133
N          3.62549       -2.90347        0.00160
C          1.90126        0.08770        0.00190
N          3.17027        0.53855        0.00262
C          2.81103        1.59119        0.00238
N          3.96525        2.32338        0.00194
N          1.99055        2.34273        0.00214
C          1.11760        1.32387        0.00144
C         -0.25131        1.54617        0.00083
C         -1.46538        0.87109        0.00020
H         -4.62967        0.46401       -0.00095
H          0.57391       -3.08387       -0.00011
H          4.86852        1.86254        0.00241
H          3.93312        3.33679        0.00214
H         -0.42857        2.62135        0.00064
