28
Coordinates from ORCA-job ./opt_b97-3c_parallel
N         -4.47827        2.70275       -0.34148
C         -3.51693        2.11275       -0.16457
C         -2.31764        1.37791        0.10593
C         -1.36207        1.83147        1.05934
N         -0.39224        2.52024        0.46443
C          0.70790        1.91664       -0.00451
N          1.80062        2.65689       -0.41744
C          2.88991        1.80461       -0.50240
N          3.83003        2.28696       -0.83935
C          2.49149        0.48512       -0.09776
C          3.38397       -0.63279       -0.13642
N          4.13061       -1.49346       -0.19287
C          1.07763        0.54272        0.19624
C          0.29054       -0.61186        0.64318
C          0.96661       -1.67210        1.32573
N          1.52069       -2.47973        1.91072
C         -1.05858       -0.84107        0.10800
C         -1.59510       -2.14297       -0.22003
C         -0.93755       -3.41440       -0.21910
N         -0.38980       -4.41476       -0.24948
C         -2.79922       -2.00238       -0.83768
C         -3.10052       -0.71701       -0.93958
C         -2.12276        0.02487       -0.34483
H         -1.73882        2.82786        1.34208
H          4.61704        1.63383       -0.88086
H          4.23552        3.19934       -1.05721
H         -3.41124       -2.81942       -1.21672
H         -4.00373       -0.32867       -1.40748
