25
Coordinates from ORCA-job ./opt_b97-3c_parallel
N          2.27981       -3.37143        0.23876
C          1.50677       -2.53266        0.18352
C          0.57620       -1.44738        0.12969
C         -0.71176       -1.87945        0.11245
N         -1.94683       -1.56869        0.05783
C         -2.79089       -0.60637        0.00889
C         -4.12861       -0.85752       -0.06466
C         -4.60896        0.42825       -0.03710
N         -3.66700        1.43951        0.02654
C         -2.47673        0.77359        0.05549
C         -1.29573        1.49581        0.10155
C          0.09630        1.07745        0.08810
N          1.12204        1.87152        0.07443
C          2.41000        1.68234        0.01976
N          2.80006        2.71856       -0.01251
C          2.23115        0.31381        0.04965
C          3.59102       -0.14813        0.00771
N          4.45774       -0.18965       -0.73616
C          0.90723       -0.04026        0.08895
H         -1.17644       -2.87832        0.13583
H         -4.52360       -1.57818       -0.77779
H         -5.66968        0.71951       -0.07527
H         -1.42036        2.57506        0.12119
H          3.70742        2.39974       -0.35673
H          2.87320        3.73218        0.07553
