28
Coordinates from ORCA-job ./opt_b97-3c_parallel
N          2.85009       -3.91461        0.12761
C          2.81342       -2.77670        0.04786
C          2.70515       -1.35062       -0.05911
C          3.84162       -0.49854       -0.20816
N          3.01485        0.23711       -0.23500
C          2.04233        0.75378       -0.31665
C          1.60622        1.86805        0.33371
C          0.61923        2.70742       -0.10613
N          0.90719        3.75586       -0.30461
C         -0.81895        2.54014       -0.06874
C         -1.49072        1.28766        0.21114
N         -2.77968        1.23862        0.28853
C         -3.22428        0.05114        0.04821
N         -4.28854        0.36514        0.08029
C         -2.07385       -0.70785       -0.06928
C         -2.62727       -2.01490       -0.32884
N         -3.36824       -2.83979       -0.04141
C         -0.82986        0.00895        0.12235
C          0.17458       -1.02685        0.09238
C          1.51539       -0.55240       -0.06013
H          4.83602       -0.97002       -0.23211
H          2.23783        2.23283        1.14462
H          0.34416        4.60210       -0.22640
H          1.87909        4.06065       -0.25611
H         -1.45099        3.41425       -0.22207
H         -5.11347        0.96479        0.06699
H         -4.63743       -0.59469        0.09978
H         -0.03334       -2.09151        0.15504
