28
Coordinates from ORCA-job ./opt_b97-3c_parallel
N          3.35663       -1.99492       -1.70669
C          2.37924       -1.66637       -1.20808
C          1.77425       -1.18231       -0.41128
C          1.12330       -2.24776        0.14246
N          0.21756       -2.01942        1.03798
C         -0.85007       -1.50869        0.51771
C         -2.04103       -2.30331        0.50521
C         -3.19642       -1.75684        0.01338
C         -2.65494       -0.54688       -0.34334
C         -3.84580        0.04207       -0.89060
N         -4.74323        0.74195       -0.78512
C         -1.26002       -0.34591       -0.06920
C         -0.58943        0.86084       -0.30089
C         -1.38747        1.98683       -0.69130
N         -1.98830        2.91057       -1.00112
C          0.81420        1.10557        0.01977
C          1.30349        2.36789        0.17998
C          2.56624        1.87070        0.35646
N          3.33754        2.66086        0.28887
C          3.05625        0.59468        0.43228
C          1.83634        0.09973        0.07371
H          0.84458       -3.29540       -0.06172
H         -2.01456       -3.30561        0.92338
H         -4.10618       -1.83996        0.60902
H          0.85880        3.05011        0.90309
H          4.33443        2.64724        0.49637
H          3.10416        3.61920        0.03447
H          3.55711        0.23735        1.32994
