26
Coordinates from ORCA-job ./opt_b97-3c_parallel
N         -2.70548        3.50483        0.07233
C         -2.52278        2.38165       -0.02186
C         -2.32818        0.96890       -0.10570
C         -3.39180        0.12269       -0.20487
N         -2.81404       -1.06766       -0.20052
C         -1.43655       -1.01794       -0.11331
N         -0.56705       -1.97849       -0.06768
C          0.58687       -2.54068        0.09743
N          0.28847       -3.59940        0.16097
C          1.89914       -1.93269        0.11521
C          2.14795       -0.50606        0.02461
C          3.41436       -0.01432       -0.02145
C          2.89286        1.24656       -0.15736
N          3.71352        1.98756       -0.21280
C          1.61368        1.74115       -0.07525
C          1.10932        0.47276        0.00098
N          0.01512        0.66678        0.01374
C         -1.04593        0.35167       -0.05879
H         -4.48359        0.24489       -0.28037
H          1.22311       -3.98317        0.29789
H         -0.35561       -4.38441        0.24614
H          2.76067       -2.59047        0.18810
H          4.13612       -0.41451       -0.73403
H          4.65767        1.66682       -0.42461
H          3.79175        2.98308       -0.00905
H          1.36933        2.51609        0.65639
