31
Coordinates from ORCA-job ./opt_b97-3c_parallel
N         -5.16908        0.73828       -1.50223
C         -4.06747        0.85632       -1.22345
C         -2.69810        0.99130       -0.82431
C         -2.67081        2.34899       -0.93660
N         -1.66043        2.60320       -0.13723
C         -1.29411        1.35783        0.32072
N         -0.29430        1.11067        1.10454
C          0.81026        0.63340        0.62959
C          1.98837        1.45159        0.57420
C          2.01752        2.84596        0.92510
N          1.48265        3.61842        0.27246
C          3.17159        0.91314        0.13584
N          4.41947        1.29255        0.48082
C          2.63914       -0.31065       -0.19783
C          3.63131       -1.23221       -0.67601
N          4.43929       -1.96399       -1.01773
C          1.23169       -0.54100        0.07209
C          0.54096       -1.74786       -0.13992
C          1.19344       -2.90837       -0.70187
N          1.11884       -3.01600       -1.83999
C         -0.77908       -2.06639        0.24974
N         -1.24651       -3.06831        0.39438
C         -1.85110       -1.08524        0.43806
C         -3.14693       -1.28957        1.04013
N         -4.16901       -1.41062        1.53509
C         -1.90362        0.19604       -0.04300
H         -3.04709        3.29233       -1.36512
H          5.22676        0.74650        0.17855
H          4.68698        2.27586        0.46398
H         -2.02787       -3.51715        0.87329
H         -0.85340       -3.77907       -0.22417
