28
Coordinates from ORCA-job ./opt_b97-3c_parallel
N          1.88704        3.20027       -1.65681
C          1.27332        2.36962       -1.16767
C          0.94951        1.75618       -0.30728
C         -0.27830        2.20627        0.09401
N         -1.59516        2.20732        0.36389
C         -2.39365        1.13392        0.16977
N         -3.73170        1.07839        0.45713
C         -4.12047       -0.21294        0.11572
N         -5.19465       -0.39897        0.31279
C         -3.09036       -0.99693       -0.35777
C         -2.02603       -0.14468       -0.34369
N         -0.84140       -0.47701       -0.75097
C          0.39320       -0.67622       -0.40337
C          1.10056       -1.83447       -0.16478
C          0.48915       -3.12594       -0.30014
N         -0.55239       -3.59529       -0.21729
C          2.43717       -1.47866        0.22579
N          3.22681       -2.20563        0.48797
C          2.54396       -0.10528        0.22877
C          3.64805        0.74335        0.56464
N          4.49884        1.45335        0.83946
C          1.27615        0.43062       -0.17625
H         -0.48549        3.21755        0.48123
H         -5.96978        0.21043        0.58229
H         -5.60398       -1.33305        0.24563
H         -3.23696       -1.70587       -1.17147
H          3.35101       -3.19284        0.26750
H          4.13883       -1.86599        0.79580
