19
Coordinates from ORCA-job ./opt_b97-3c_parallel
N          1.03117       -2.07997       -2.05085
C          1.71411       -1.66270       -1.23358
C          1.37891       -1.06549       -0.36495
C          0.65649       -1.49626        0.70424
N         -0.65106       -1.59361        0.98046
C         -1.61896       -0.97776        0.27308
N         -2.91819       -1.42383        0.27909
C         -3.67919       -0.54159       -0.47419
N         -2.85638        0.49560       -0.89735
C         -1.56743        0.25910       -0.46350
N         -0.61448        1.28987       -0.50517
C          0.72995        1.33111       -0.11737
N          1.45226        2.47732        0.12680
C          2.76239        2.13273        0.42536
N          2.86109        0.75458        0.31810
C          1.63790        0.22964       -0.03535
H          1.21134       -2.15155        1.39333
H         -4.76538       -0.65233       -0.63671
H          3.61417        2.78562        0.68174
