26
Coordinates from ORCA-job ./opt_b97-3c_parallel
N         -1.53649       -3.89150       -0.47988
C         -1.02008       -2.91958       -0.17595
C         -0.32317       -1.73241        0.22037
C          0.84116       -1.77444        1.03754
N          1.93220       -2.07596        0.34958
C          2.69759       -1.07059       -0.09164
N          3.97768       -1.26001       -0.54993
C          4.55758       -0.00301       -0.65632
N          3.65974        0.97351       -0.24706
C          2.49038        0.33566        0.08513
C          1.34716        1.16305        0.44436
C         -0.07190        0.82401        0.36343
C         -1.07292        1.84762        0.24911
C         -0.78269        3.24972        0.31148
N         -0.50864        4.35771        0.35986
C         -2.34188        1.40586       -0.05259
N         -3.49218        2.10267       -0.01968
C         -2.13444        0.05092       -0.17147
C         -3.23795       -0.80759       -0.48268
N         -4.11371       -1.48584       -0.76337
C         -0.79551       -0.37776        0.12043
H          1.04175       -2.85504        1.11879
H          5.53780        0.39729       -0.96066
H          1.58126        2.21874        0.54000
H         -3.48904        3.11405       -0.14824
H         -4.33461        1.73136       -0.45771
