22
Coordinates from ORCA-job ./opt_b97-3c_parallel
N         -4.71995        1.80552       -0.00085
C         -3.94553        0.96701        0.00254
C         -2.94401       -0.05237        0.00446
C         -3.38647       -1.34170        0.00528
N         -2.24627       -2.00988        0.00447
C         -1.12430       -1.20719        0.00346
N          0.08800       -1.86048        0.00115
C          1.38890       -1.40651       -0.00072
N          2.38426       -2.35425       -0.00264
C          3.60797       -1.70674       -0.00314
N          3.37496       -0.34316       -0.00095
C          2.01276       -0.13022        0.00042
C          1.51691        1.22679        0.00184
C          2.47601        2.30162        0.00179
N          3.26711        3.12548        0.00063
C          0.29002        1.85664        0.00028
C         -0.96226        1.40688        0.00098
C         -1.52562        0.15752        0.00351
H         -4.35212       -1.87166        0.00505
H          4.60635       -2.17269       -0.00502
H          0.29251        2.95194       -0.00191
H         -1.68215        2.22349       -0.00043
