23
Coordinates from ORCA-job ./opt_b97-3c_parallel
N         -4.30519       -0.64212        0.32944
C         -3.22729       -0.48196        0.13621
C         -2.14250       -1.34324       -0.22163
C         -0.95312       -0.55583       -0.27419
C          0.25964       -1.22844       -0.45721
C          1.64385       -0.81928       -0.23451
C          2.68826       -1.68793       -0.16001
C          3.74885       -1.01113        0.26699
C          3.48403        0.27706        0.45362
C          2.18470        0.47118        0.11047
N          1.67854        1.75230        0.05255
C          0.58938        1.67874       -0.68544
N         -0.58956        1.92900       -0.05774
C         -1.38331        0.80267       -0.00995
N         -2.74195        0.80894        0.26146
H         -5.00663        0.00730        0.68981
H         -4.79347       -1.53393        0.22906
H         -2.20302       -2.42030       -0.35302
H          0.17321       -2.29378       -0.65514
H          2.65973       -2.75311       -0.38125
H          4.72398       -1.46029        0.44344
H          4.18531        1.03397        0.79904
H          0.75041        2.74219       -0.44565
