26
Coordinates from ORCA-job ./opt_b97-3c_parallel
N          5.12798       -1.70748        0.89159
C          4.35919       -0.91738        0.59291
C          3.42046        0.08009        0.18537
C          3.82941        1.35615       -0.06491
N          2.70530        1.94959       -0.43420
C          1.60137        1.12050       -0.42660
N          0.36656        1.38119       -0.73582
C         -0.87066        1.18786       -0.39266
C         -1.72845        2.22854       -0.17796
C         -2.85471        1.57070        0.25520
N         -3.66730        2.26785        0.52582
C         -2.75214        0.19727        0.28716
C         -3.68871       -0.80597        0.69204
N         -4.40864       -1.62681        1.02620
C         -1.43329       -0.10505       -0.16060
C         -0.83057       -1.33257       -0.28767
C         -1.17535       -2.08186       -1.02778
N         -1.81617       -2.85159       -1.57714
C          0.45262       -1.64256        0.08183
N          1.41544       -1.09167        0.13562
C          2.02902       -0.17509        0.00201
H          4.85683        1.73899        0.03862
H         -1.79008        3.05126       -0.89135
H         -4.00132        3.23014        0.47504
H         -4.47370        1.70325        0.79321
H          0.96803       -2.59021        0.30999
