23
Coordinates from ORCA-job ./opt_b97-3c_parallel
N          4.05789       -1.13822        0.87492
C          3.15551       -0.46136        0.69727
C          2.01698        0.36719        0.43257
C          2.73240        1.52677        0.40297
N          1.89519        2.29081       -0.26131
C          0.86617        1.39887       -0.46686
N         -0.20710        1.78997       -1.07238
C         -1.20194        2.33701       -0.45560
C         -2.31393        1.65350        0.14607
C         -2.42356        0.20985        0.18027
C         -3.69851       -0.34933        0.45389
C         -3.53067       -1.76427        0.29775
N         -2.20868       -2.05260       -0.02416
C         -1.59586       -0.86181       -0.06381
C         -0.15626       -0.89155       -0.23124
C          0.59518       -2.07566       -0.53860
N          1.19326       -2.42669       -1.44888
C          0.76386        0.10666       -0.05444
H          3.62773        2.12006        0.65041
H         -1.44048        3.41085       -0.40607
H         -3.16119        2.24891        0.47459
H         -4.62164        0.17806        0.67439
H         -4.13299       -2.68406        0.35394
