25
Coordinates from ORCA-job ./opt_b97-3c_parallel
N         -4.12462       -1.45160        1.84632
C         -3.32199       -1.34199        1.04403
C         -2.29564       -1.16659        0.06266
C         -2.42810       -2.27828       -0.71790
N         -1.15164       -2.48225       -0.96310
C         -0.45323       -1.38861       -0.51012
N          0.91805       -1.68152       -0.50510
C          1.97477       -0.81320       -0.18507
N          3.27174       -1.17777        0.11436
C          4.04851       -0.04491        0.32526
N          5.10907       -0.20423        0.60654
N          3.21834        1.04799        0.09588
C          1.94585        0.61845       -0.22886
N          0.93376        1.34842       -0.58706
C         -0.22829        1.89908       -0.40317
N          0.11860        2.92052       -0.63241
C         -1.38290        1.14830        0.01336
C         -2.60773        1.81310        0.32327
N         -3.58675        2.32693        0.60700
C         -1.15411       -0.27864        0.08597
H         -3.16496       -3.04585       -1.00727
H          5.69049        0.51791        1.04170
H          5.73310       -1.01352        0.53611
H          0.59099        3.76784       -0.95335
H         -0.87300        3.16793       -0.61992
