24
Coordinates from ORCA-job ./opt_b97-3c_parallel
N          4.45281       -1.30949       -0.02681
C          3.49631       -0.75195       -0.02093
C          3.18215        0.64299       -0.01220
C          1.75877        0.77997       -0.00194
C          1.25025        2.05859        0.00496
C         -0.09311        2.55612        0.04233
N         -1.33014        2.04334        0.09057
C         -1.82824        0.75466        0.08039
C         -3.19199        0.75393        0.13077
C         -3.47535       -0.58913        0.07328
N         -4.29271       -1.32846        0.06186
N         -2.35529       -1.32866        0.01574
C         -1.27893       -0.55008        0.01636
N         -0.01643       -1.10646       -0.01786
C          1.24833       -0.55488       -0.00928
N          2.30340       -1.45545       -0.02307
H          5.36954       -0.85776        0.00971
H          4.65813       -2.31086       -0.05010
H          3.90394        1.45564       -0.01063
H          1.98299        2.86196       -0.01010
H         -0.29549        3.63938        0.05678
H         -3.78624        1.47472       -0.42932
H         -4.54836       -2.31575        0.06963
H         -5.17118       -0.81022        0.04599
