24
Coordinates from ORCA-job ./opt_b97-3c_parallel
N          1.67261       -4.25866       -0.09035
C          1.08971       -3.28255       -0.19293
C          0.31972       -2.07962       -0.30744
C         -1.09723       -2.26577       -0.57619
N         -2.15033       -1.51991       -0.15336
C         -2.34819       -0.20227        0.06958
N         -3.46830        0.29523        0.68908
C         -3.39979        1.67758        0.61265
N         -2.26090        2.02139       -0.10401
C         -1.59144        0.87255       -0.46875
N         -0.55122        0.69936       -1.21076
C          0.54747        0.36531       -0.61903
C          1.50850        1.31871       -0.41367
C          1.61461        2.73311       -0.63356
N          0.77762        3.28259       -0.07934
C          2.55385        0.51271        0.12342
N          3.58793        0.72677        0.44801
C          2.29391       -0.82294        0.26759
C          0.99281       -0.86231       -0.19225
H         -1.47442       -3.30011       -0.63814
H         -4.16980        2.34299        1.03823
H          4.33646        0.05196        0.61065
H          4.04486        1.63880        0.41418
H          2.58770       -1.36652        1.16835
