26
Coordinates from ORCA-job ./opt_b97-3c_parallel
N          1.76892       -3.86212       -0.37708
C          1.15981       -2.92823       -0.12825
C          0.35050       -1.79294        0.20384
C         -0.86374       -1.94265        0.93605
N         -1.92599       -2.07724        0.15074
C         -2.68590       -1.00697       -0.11261
N         -3.95770       -1.08272       -0.60087
C         -4.42509        0.21624       -0.48104
C         -3.59172        1.12904        0.12006
C         -2.48312        0.35105        0.28432
N         -1.32061        1.07153        0.58436
C         -0.02825        0.69954        0.40700
C          0.92671        1.76561        0.31306
C          0.67207        3.17381        0.43883
N         -0.06347        4.03082        0.26066
C          2.22578        1.44823       -0.01506
N          3.37084        2.15896       -0.01074
C          2.05616        0.08783       -0.15100
C          3.19525       -0.70371       -0.51199
N          4.10822       -1.31403       -0.82809
C          0.73291       -0.40260        0.13624
H         -0.98463       -3.03778        0.95340
H         -5.40831        0.63188       -0.75124
H         -3.52158        2.14971       -0.25171
H          4.20848        1.79341       -0.46278
H          3.35505        3.16936       -0.14405
