23
Coordinates from ORCA-job ./opt_b97-3c_parallel
N         -0.07308       -2.39449        0.23232
C          0.17650       -1.34683       -0.01015
C          1.44798       -0.66702       -0.08921
C          2.65512       -1.38548        0.18758
N          3.33095       -0.53261        0.01955
C          2.94552        0.48299       -0.15834
C          1.55653        0.72690       -0.42670
C          1.15490        2.09281       -0.24173
N          0.01874        2.14514        0.37443
C         -1.24610        1.87786        0.43724
C         -1.79850        0.59176        0.11225
C         -3.21564        0.41447        0.17917
N         -3.17598       -0.63014       -0.16620
C         -2.29218       -0.73934       -0.81362
C         -0.96990       -0.51541       -0.29347
H         -0.98300       -2.81626        0.05602
H          0.59351       -2.85165       -0.38664
H          2.88057       -2.42456        0.47037
H          3.79083        1.18796       -0.15875
H          1.56977        2.90753       -0.85348
H         -1.70887        2.82362        0.75560
H         -4.00555        1.12758        0.45887
H         -2.48661       -1.71849       -1.27791
