23
Coordinates from ORCA-job ./opt_b97-3c_parallel
N         -3.04259        3.19831       -0.01558
C         -2.67127        2.11732       -0.00750
C         -2.25209        0.75056       -0.00379
C         -3.27053       -0.25517       -0.00199
N         -3.11532       -1.34603        0.00104
C         -1.78375       -1.19886        0.00234
N         -0.89356       -2.20871        0.00696
C          0.15329       -2.55017        0.00922
C          1.54251       -2.18262        0.00902
C          2.10601       -0.89636        0.00463
C          3.11584       -0.45374        0.00348
C          3.12377        0.97660       -0.00233
N          4.29843        1.67127       -0.00479
N          2.16012        1.50608       -0.00492
C          1.37841        0.41782       -0.00085
N          0.03714        0.44154       -0.00054
C         -1.28766        0.21722       -0.00147
H         -4.34894       -0.14702       -0.00314
H         -0.28259       -3.54236        0.01239
H          2.16676       -3.07267        0.01273
H          4.03689       -1.02832        0.00625
H          5.18825        1.18595        0.00046
H          4.29180        2.68516       -0.00602
