25
Coordinates from ORCA-job ./opt_b97-3c_parallel
N          5.18066       -1.50324       -0.00772
C          4.35921       -0.71113       -0.00554
C          3.30268        0.24891       -0.00233
C          3.55338        1.59023        0.00261
N          2.34078        2.13281        0.00525
C          1.29791        1.22412        0.00235
N         -0.00165        1.72537        0.00473
C         -1.29633        1.21030        0.00261
N         -2.26137        2.19811        0.00584
C         -3.50071        1.58846        0.00303
C         -3.32979        0.17136       -0.00217
C         -4.39716       -0.77604       -0.00588
N         -5.22797       -1.55952       -0.00859
C         -1.92059       -0.08414       -0.00254
C         -1.43567       -1.37276       -0.00707
C         -0.00983       -1.56155       -0.00599
N          0.00056       -2.67066       -0.00593
C          1.41908       -1.40381       -0.00770
C          1.91347       -0.05837       -0.00297
H          4.52352        2.11156        0.00408
H         -4.45877        2.13136        0.00461
H         -2.16396       -2.19150       -0.01100
H         -0.80545       -3.29771       -0.00884
H          0.80130       -3.30466       -0.00878
H          2.16903       -2.20284       -0.01168
