25
Coordinates from ORCA-job ./opt_b97-3c_parallel
N         -4.07038       -1.94808        0.48180
C         -3.38272       -1.04532        0.35578
C         -2.51643        0.07430        0.15354
C         -2.98130        1.35645        0.13293
N         -1.89792        2.05896       -0.17962
C         -0.73711        1.31850       -0.32104
N          0.42804        1.65002       -0.74513
C          1.50460        1.85299       -0.07642
N          1.72197        2.93267       -0.00276
C          2.41099        0.81240        0.29317
C          2.13105       -0.58883        0.06356
C          3.25634       -1.45317        0.17833
C          2.84275       -2.71999       -0.03788
C          1.53764       -2.68927       -0.26087
C          1.03397       -1.41590       -0.18893
C         -0.40268       -1.19940       -0.14457
C         -1.11332       -0.01491       -0.06692
H         -4.03019        1.64130        0.30890
H          2.73645        2.89505       -0.09507
H          1.46586        3.91433       -0.10164
H          3.40234        1.09512        0.63916
H          4.26994       -1.12446        0.38834
H          3.47172       -3.60756       -0.03532
H          0.94041       -3.57551       -0.46662
H         -0.98127       -2.11884       -0.13160
