26
Coordinates from ORCA-job ./opt_b97-3c_parallel
N          4.38381       -1.97865       -0.37270
C          3.74950       -1.08308       -0.05964
C          2.90757        0.01368        0.31033
C          3.57147        0.99758       -0.36288
N          2.60058        1.74617       -0.84070
C          1.32116        1.25040       -0.72567
N          0.39795        2.14872       -0.65550
C         -0.35518        2.54566        0.32282
C         -1.49625        1.82071        0.82137
C         -1.72549        0.45568        0.39237
C         -2.99777       -0.01606        0.20802
C         -4.32866        0.50376        0.31352
N         -4.56035        0.93626       -0.71831
C         -2.75959       -1.33680       -0.27606
N         -3.23231       -2.26950       -0.64159
N         -1.41593       -1.66256       -0.33851
C         -0.73898       -0.57809        0.13407
C          0.59600       -0.63333        0.53176
C          0.77105       -1.44291        1.27810
N          0.99382       -2.47876        1.70478
C          1.56941        0.15548        0.03651
H          4.57716        1.43186       -0.48690
H         -0.42601        3.60365        0.62245
H         -2.30314        2.39848        1.26474
H         -4.18147       -2.08991       -0.97676
H         -3.16475       -3.28605       -0.56095
