32
Coordinates from ORCA-job ./opt_b97-3c_parallel
N          1.94146       -1.99760        1.62739
C          1.09181       -1.63286        0.65278
C         -0.13995       -2.10690        0.53936
C         -0.97923       -1.66635       -0.44321
N         -1.31318       -2.56055       -1.00136
C         -1.68626       -0.41817       -0.34718
C         -2.98443       -0.21612       -0.68500
C         -3.36919        0.89673       -0.07404
C         -2.39890        1.47155        0.63474
N         -2.56168        2.59954        1.34338
C         -1.28786        0.69473        0.46787
C          0.05159        1.25908        0.50837
C          1.19034        0.67646       -0.16375
C          2.23982        1.41715       -0.65048
N          2.49409        2.48539       -0.75702
C          3.16977        0.51550       -1.08939
C          2.77021       -0.72713       -0.84781
C          1.56436       -0.69817       -0.22066
H          1.84338       -2.90511        2.07732
H          2.93485       -1.79263        1.53807
H         -0.49958       -2.82783        1.27472
H         -1.16871       -3.53667       -1.25156
H         -1.95947       -2.16991       -1.68396
H         -3.60293       -0.85723       -1.30840
H         -4.37919        1.29435       -0.14483
H         -3.48756        2.87244        1.66669
H         -1.88663        2.85364        2.06188
H          0.11047        2.31640        0.74750
H          2.99914        3.34087       -0.53410
H          1.65763        2.75603       -1.27016
H          4.10942        0.76995       -1.57808
H          3.32602       -1.62662       -1.10164
