22
Coordinates from ORCA-job ./opt_b97-3c_parallel
N          0.51474        2.94922        0.12294
C          0.08510        1.93547        0.20071
C         -1.21584        1.61616       -0.31560
C         -1.86025        0.34440       -0.06469
C         -3.19992        0.16563       -0.21602
C         -3.46942       -1.11013        0.02644
C         -2.37915       -1.80195        0.32793
C         -1.31600       -0.95309        0.28402
N         -0.09480       -1.48402        0.03423
C          1.14960       -0.97690       -0.05577
N          2.23343       -1.71729       -0.45769
C          3.35291       -0.91713       -0.29864
N          2.95291        0.29875        0.24222
C          1.58569        0.28349        0.42134
N          0.78770        1.15033        0.94620
H          1.25495        3.65085        0.17690
H         -0.35711        3.47405        0.20226
H         -1.81344        2.41870       -0.74313
H         -3.92870        0.93035       -0.48013
H         -4.46971       -1.53824       -0.01492
H         -2.34898       -2.86303        0.56953
H          4.31360       -1.37259       -0.59221
