22
Coordinates from ORCA-job ./opt_b97-3c_parallel
N          4.47044       -1.83913       -0.01392
C          3.43497       -1.35454        0.01378
C          2.13922       -0.72790        0.06116
C          1.10943       -1.72455        0.19242
N          0.04342       -1.94271        0.01647
C         -1.22137       -1.48770       -0.05805
N         -2.30147       -2.24852       -0.27998
C         -2.97865       -1.38233       -0.20705
C         -2.58540       -0.02667        0.02784
C         -3.62911        0.94924        0.09178
N         -4.58309        1.54686        0.28923
C         -1.48679       -0.02187        0.12165
N         -0.44689        0.80298        0.33338
C          0.70214        1.44143        0.06407
N          0.82280        2.77185       -0.01975
C          1.90693        2.91000       -0.13792
C          2.53148        1.62452       -0.13123
C          1.98854        0.66859       -0.01968
H          1.20939       -2.78997        0.36692
H         -3.96906       -1.79961       -0.35011
H          2.35155        3.89282       -0.24162
H          3.60712        1.53230       -0.24718
