25
Coordinates from ORCA-job ./opt_b97-3c_parallel
N         -4.41302        1.92650        0.20089
C         -3.67839        1.05686        0.10598
C         -2.70860        0.00875       -0.01140
C         -3.64885       -0.96133       -0.20399
N         -2.89970       -2.03714       -0.16768
C         -1.60516       -1.60108       -0.01196
N         -0.66820       -2.62074        0.02724
C          0.63988       -2.18347        0.09814
C          1.55930       -1.16999        0.13648
C          2.39246       -1.89093        0.28946
N          3.47193       -2.27315        0.27808
C          1.77220        0.18635        0.02241
N          2.97216        0.86812       -0.07811
C          2.71525        2.22949       -0.12879
N          3.61021        2.87349       -0.21324
C          1.37174        2.49451       -0.06314
C          0.81102        1.25369        0.01582
C         -0.63188        1.10126        0.08772
C         -1.27578       -0.19624        0.05593
H         -4.68795       -1.29893       -0.35060
H          0.38090       -3.25780        0.08487
H          4.58840        2.60886       -0.34154
H          3.61451        3.89503       -0.16965
H          0.98708        3.32751        0.52261
H         -1.19638        2.02971        0.10272
