25
Coordinates from ORCA-job ./opt_b97-3c_parallel
N         -4.51041        0.71574        0.18146
C         -3.42733        0.59606        0.00435
C         -2.19587        1.16920       -0.12772
C         -0.80305        0.61880       -0.09942
C          0.19497        1.65927       -0.18126
C          1.55474        1.21683       -0.06721
N          2.58976        2.12528       -0.02663
C          3.76351        1.52318        0.10420
C          3.41823        0.24145        0.12735
C          2.12768       -0.00380        0.02778
N          1.42488       -1.11768       -0.00700
C          0.57389       -2.15043       -0.04319
N          1.04904       -3.14974       -0.09009
C         -0.85964       -1.92541        0.05716
C         -1.50822       -0.62253        0.10599
N         -2.79026       -0.50662        0.22578
H         -4.95814        1.63222        0.12955
H         -5.26703        0.05549        0.36514
H         -2.15898        2.24800       -0.28215
H         -0.00851        2.72429       -0.25631
H          4.56078        2.28226        0.14153
H          4.15974       -0.54858        0.22281
H          2.01784       -3.47366       -0.08485
H          0.50277       -3.97817       -0.33300
H         -1.50176       -2.80069        0.12100
