24
Coordinates from ORCA-job ./opt_b97-3c_parallel
N          4.14515        1.98546       -0.14941
C          3.12916        1.46469       -0.10496
C          1.83655        0.84910       -0.06159
C          1.04931        1.96062       -0.18985
N         -0.21444        2.37295       -0.13116
C         -1.34460        1.60698        0.03554
N         -2.46836        2.40103        0.13402
C         -3.56185        1.56959        0.19634
C         -3.11238        0.22088        0.10462
C         -1.67250        0.20906        0.00684
C         -0.96968       -0.99446       -0.08409
C         -1.78645       -2.17704       -0.19274
N         -2.48123       -2.90658       -0.73256
C          0.44765       -1.34537        0.00241
C          0.91960       -2.63991        0.04915
C          2.22566       -2.63770        0.19059
C          2.66419       -1.40351        0.22046
C          1.59632       -0.56104        0.08255
H          1.12662        3.05370       -0.30763
H         -4.63017        1.81960        0.28911
H         -3.78522       -0.63083        0.12654
H          0.33430       -3.55588       -0.00267
H          2.84879       -3.52627        0.27318
H          3.70746       -1.11960        0.34458
