23
Coordinates from ORCA-job ./opt_b97-3c_parallel
N         -4.70670        1.42092       -0.34538
C         -3.66848        1.07409       -0.67590
C         -2.71987        0.52306       -0.49348
C         -1.70272        1.37995       -0.20802
N         -0.68154        2.18752        0.06996
C          0.60747        1.82311        0.22064
N          1.57436        2.78205        0.45729
C          2.80854        2.16151        0.40317
C          2.64827        0.77597        0.08746
C          3.75228       -0.12850        0.01015
N          4.66146       -0.81752       -0.03565
C          1.23030        0.54161       -0.01098
C          0.62728       -0.75577       -0.30389
C          1.39674       -1.81864       -0.89724
N          2.02673       -2.66199       -1.34096
C         -0.67963       -1.12542       -0.05232
N         -0.83341       -2.29065        0.56619
C         -2.13007       -2.53154        0.70092
N         -2.85705       -1.47294        0.26093
C         -1.92973       -0.55962       -0.20397
H         -1.75636        2.48378       -0.13944
H          3.80207        2.60960        0.56424
H         -2.55550       -3.45473        1.12678
