31
Coordinates from ORCA-job ./opt_b97-3c_parallel
N         -0.80301        2.58392       -1.10439
C         -0.69661        1.66540       -0.49850
C          0.27540        1.99719        0.40553
C          1.37134        1.26831        0.56401
N          2.33435        1.56932        1.45291
C          1.56465        0.11406       -0.13634
C          2.73397       -0.20413       -0.77499
N          3.73310        0.10232       -1.13276
N          2.87532       -1.50909       -1.06953
C          1.72915       -2.13193       -0.57691
C          0.88013       -1.11844       -0.03674
C         -0.36584       -1.42380        0.61218
C         -1.51142       -0.54428        0.48670
C         -2.82958       -1.09177        0.59093
N         -3.24066       -2.06709        0.90385
C         -3.69736       -0.22287       -0.01008
C         -3.03445        0.80250       -0.53523
C         -1.71183        0.67897       -0.23697
H         -0.48077        3.52159       -1.33946
H         -1.80778        2.65713       -0.95192
H          0.14556        2.87897        1.03813
H          2.28448        2.45699        1.95367
H          2.62542        0.87125        2.13635
H          4.68542       -0.03334       -1.46977
H          3.71009        1.01928       -0.68579
H          1.50649       -3.20949       -0.61696
H         -0.57702       -2.46471        0.83883
H         -4.10234       -2.28610        0.40687
H         -3.16796       -2.73415        1.66957
H         -4.77569       -0.35716       -0.08628
H         -3.48886        1.62714       -1.07991
