21
Coordinates from ORCA-job ./opt_b97-3c_parallel
N          3.81275       -2.24748       -0.48663
C          3.11707       -1.36245       -0.29856
C          2.21269       -0.27973       -0.05975
C          3.10339        0.69640        0.27165
N          2.24381        1.68949        0.23047
C          0.99013        1.20388       -0.06525
N          0.38091        2.44229        0.00601
C         -0.98939        2.35100       -0.13743
N         -1.87320        1.41708       -0.27874
C         -2.12823        0.15892       -0.11084
C         -3.47759       -0.27157        0.05442
C         -3.46465       -1.69742        0.20696
N         -2.15981       -2.15562        0.14544
C         -1.46006       -1.03464       -0.03187
C         -0.02886       -1.16714       -0.11375
C          0.86705       -0.14315       -0.23375
H          4.13912        0.97230        0.52629
H         -1.61353        3.25864       -0.11484
H         -4.36028        0.36087        0.06409
H         -4.20366       -2.49893        0.35803
H          0.36384       -2.17906       -0.05407
