28
Coordinates from ORCA-job ./opt_b97-3c_parallel
N          0.53464        2.99213        0.41225
C          0.18293        2.00447        0.05889
C          0.79868        1.36197       -0.96861
C          1.63500        0.51780       -0.31384
C          2.97874        0.67330       -0.12803
C          3.39106       -0.56911        0.30229
N          4.33089       -1.10207        0.53836
N          2.34286       -1.47025        0.44992
C          1.22278       -0.75768        0.11463
C         -0.06265       -1.38878       -0.06913
C         -1.35620       -0.77450       -0.35228
N         -2.35016       -1.56053       -0.61794
C         -3.34400       -0.77261       -0.31706
N         -4.29147       -1.34234       -0.39876
C         -3.21389        0.54853        0.03050
C         -1.85239        0.53287        0.00653
C         -1.12755        1.66679        0.53580
H         -0.21243        3.67825        0.52248
H          1.40245        3.52454        0.47862
H          1.11460        1.89282       -1.86531
H          3.58117        1.26800       -0.81329
H          5.22825       -0.61479        0.54444
H          4.55355       -2.08269        0.71430
H         -0.05287       -2.47577       -0.02592
H         -4.53059       -2.31840       -0.21772
H         -5.16780       -0.89728       -0.67631
H         -3.76006        0.97309        0.87226
H         -1.68893        2.42240        1.08443
