24
Coordinates from ORCA-job ./opt_b97-3c_parallel
N         -1.96164       -2.95550       -0.93031
C         -1.29430       -2.54120       -0.09885
C         -0.82477       -1.53730       -0.06037
C          0.51117       -1.85100       -0.03420
N          1.84808       -1.79541        0.00357
C          2.61445       -0.68218        0.05385
N          3.97861       -0.74568        0.11853
C          4.39590        0.57464        0.16370
C          3.39394        1.51414        0.11843
C          2.28326        0.72180        0.05960
N          1.03764        1.36964        0.03029
C         -0.17206        0.69729       -0.00318
N         -0.95541        1.85129        0.00457
C         -2.33632        1.64797       -0.01186
N         -2.72616        2.69117        0.01222
C         -2.38115        0.27768       -0.01935
C         -3.42809       -0.10001       -0.01113
N         -3.97577       -0.50029        0.90963
C         -1.15649       -0.24013       -0.03048
H          1.13525       -2.76309       -0.05316
H          5.48986        0.69438        0.23033
H          3.49639        2.39998       -0.50662
H         -3.66841        2.53488        0.38381
H         -2.74376        3.66226       -0.31129
