24
Coordinates from ORCA-job ./opt_b97-3c_parallel
N          4.44435       -0.00630        0.98115
C          3.42430       -0.40756        0.65928
C          2.13305       -0.86547        0.23739
C          2.55786       -2.12516       -0.06486
N          1.31340       -2.48198       -0.29982
C          0.46432       -1.40382       -0.18214
N         -0.58217       -2.29500       -0.37388
C         -1.83060       -1.73244       -0.16700
N         -2.68216       -2.41459       -0.33989
N         -2.22728       -0.57179        0.25111
C         -1.98262        0.70105        0.24403
C         -3.06995        1.61975        0.34864
C         -2.53136        2.94397        0.26716
N         -1.15896        2.86648        0.11154
C         -0.91313        1.55166        0.12008
C          0.46255        1.10884       -0.00999
C          1.52903        2.02885       -0.29555
N          1.87973        2.10082       -1.38412
C          0.96475       -0.16612        0.10151
H          3.32934       -2.91231       -0.10803
H         -3.64967       -2.10305       -0.44006
H         -2.71345       -3.42608       -0.47913
H         -4.12072        1.36891        0.46009
H         -2.93073        3.97009        0.29311
