29
Coordinates from ORCA-job ./opt_b97-3c_parallel
N         -1.76953        2.54293       -0.23492
C         -1.36759        1.53086       -0.03801
C         -0.19598        1.65745        0.63187
C          0.98819        1.38952        0.02534
N          1.45552        2.37400       -0.16821
C          1.55784        0.07332       -0.01833
C          2.89178       -0.16730       -0.26731
N          3.82432        0.36726       -0.52271
C          3.09267       -1.50441       -0.04738
C          1.96631       -2.09955        0.32662
C          0.96242       -1.18416        0.32821
C         -0.34378       -1.63876        0.47441
C         -1.59963       -0.99138        0.14249
C         -2.73443       -1.84518        0.02397
N         -3.15448       -0.85584       -0.29342
C         -3.39007        0.20720       -0.55931
C         -2.01692        0.26139       -0.17667
H         -2.67908        2.27074        0.13154
H         -1.58834        3.49028        0.09085
H         -0.21825        1.78024        1.71428
H          2.32515        2.00556        0.21361
H          1.37162        3.33453        0.15742
H          4.66322        0.05921       -1.00992
H          3.36222        1.04611       -1.12580
H          4.04616       -2.02410       -0.13962
H          1.86759       -3.15553        0.56677
H         -0.44908       -2.69761        0.69387
H         -3.02200       -2.90267        0.12058
H         -4.25616        0.81371       -0.86409
