27
Coordinates from ORCA-job ./opt_b97-3c_parallel
N          5.40906        0.68256        0.95124
C          4.46996        0.09159        0.68346
C          3.29607       -0.63011        0.30509
C          3.20690       -1.98713        0.18314
N          1.96722       -2.19523       -0.25904
C          1.19982       -1.05703       -0.44990
N         -0.01045       -0.83459       -0.85366
C         -1.16818       -0.40749       -0.45091
C         -2.34293       -1.08761       -0.29266
C         -2.57495       -2.47593       -0.56168
N         -1.92984       -3.32778       -0.15388
C         -3.23163       -0.08373        0.20278
N         -4.30028       -0.17273        0.47099
C         -2.75346        1.18073        0.42087
C         -1.47620        0.93460       -0.01731
C         -0.56500        1.98427       -0.02166
C         -0.62288        3.36282        0.36488
N         -1.26624        4.22131       -0.02960
C          0.65558        1.90536       -0.63593
C          1.80869        1.40294       -0.10526
C          2.07997       -0.01187       -0.07288
H          4.03109       -2.68243        0.40819
H         -4.84301       -1.03487        0.51422
H         -4.97981        0.58789        0.45079
H         -3.29765        2.06220        0.07940
H          0.71709        2.28559       -1.65538
H          2.59539        2.07876        0.21758
