26
Coordinates from ORCA-job ./opt_b97-3c_parallel
N          4.22326       -1.87320        0.07167
C          3.46233       -1.03034        0.18517
C          2.46352       -0.00887        0.30644
C          3.34948        0.95880        0.68322
N          2.44139        1.82821        0.29400
C          1.26140        1.25675       -0.12803
N          0.70173        2.52007       -0.28326
C         -0.68399        2.52613       -0.36386
N         -1.06771        3.53758       -0.59669
N         -1.55757        1.59262       -0.11695
C         -1.89626        0.35125        0.07819
C         -3.26114       -0.00982        0.32642
C         -3.33918       -1.44511        0.42476
N         -3.98787       -2.32868        0.58830
N         -2.06621       -1.96251        0.23569
C         -1.28811       -0.87815        0.06832
C          0.14671       -1.05455       -0.12107
C          0.65930       -2.36323       -0.43221
N          0.57106       -2.49086       -1.56718
C          1.14515       -0.10409       -0.05897
H          4.33800        1.21715        1.09931
H         -0.50097        4.38848       -0.64294
H         -1.96509        3.81461       -1.00187
H         -4.09880        0.67663        0.41679
H         -4.88748       -2.30130        1.07581
H         -3.87419       -3.31144        0.32598
