25
Coordinates from ORCA-job ./opt_b97-3c_parallel
N         -4.70833       -0.99634       -0.29985
C         -3.43782       -0.63215       -0.07408
C         -2.37535       -1.43939        0.15454
C         -1.21546       -0.62827        0.21874
C          0.07733       -1.24838        0.36053
C          1.36651       -0.58715        0.30048
N          2.49715       -1.21614        0.33640
C          3.51647       -0.47156        0.04231
N          4.40538       -1.09221       -0.17585
C          3.16548        0.84526        0.12783
C          1.80943        0.71800        0.18000
N          1.27420        1.94744        0.10552
C         -0.09050        1.96715        0.07351
N         -1.37402        1.94345        0.04511
C         -1.61487        0.67701        0.08920
C         -2.97852        0.61809       -0.10461
H         -5.46108       -0.31029       -0.28661
H         -5.06943       -1.88151        0.05190
H         -2.37258       -2.52339        0.21640
H          0.09028       -2.33047        0.45207
H          5.28574       -0.68950       -0.49725
H          4.57667       -2.09231       -0.07094
H          3.64202        1.58886       -0.51133
H         -0.20727        3.06250        0.06492
H         -3.62752        1.47217       -0.31181
