25
Coordinates from ORCA-job ./opt_b97-3c_parallel
N         -4.63457       -1.89900        1.04618
C         -4.02560       -0.99776        0.69900
C         -3.25237        0.10745        0.22927
C         -3.76685        1.35117        0.00200
N         -2.74327        2.01187       -0.53311
C         -1.55797        1.30080       -0.63584
N         -0.43224        1.54591       -1.20883
C          0.37460        1.92133       -0.27661
C          1.38913        1.08887        0.29158
C          2.45558        1.73622        0.99140
N          3.27966        2.28459        1.56074
C          1.40854       -0.32748       -0.04157
C          2.57308       -1.06818        0.01913
C          3.99044       -0.98951        0.22085
N          4.53286       -0.40427       -0.59834
C          2.23649       -2.37446       -0.21642
C          0.93187       -2.49954       -0.40368
C          0.34627       -1.27943       -0.30815
C         -1.08343       -1.16858       -0.07273
C         -1.87079        0.04037       -0.08846
H         -4.81109        1.63931        0.20084
H          0.45422        3.00275       -0.08141
H          2.93364       -3.21211       -0.24772
H          0.41709       -3.43650       -0.60782
H         -1.61688       -2.10250        0.08167
