26
Coordinates from ORCA-job ./opt_b97-3c_parallel
N          4.91169        1.70258        1.01316
C          4.15828        0.92635        0.65031
C          3.23812       -0.07478        0.21663
C          3.56470       -1.47087        0.26440
N          2.54303       -2.22303       -0.18604
C          1.57823       -1.29704       -0.51777
N          0.39859       -1.53864       -0.98741
C         -0.79008       -1.48286       -0.47768
C         -1.53149       -2.60922       -0.28171
C         -2.72941       -2.28244        0.18283
C         -2.82132       -0.93031        0.30705
C         -3.97617       -0.30356        0.87146
N         -4.89710        0.16956        1.35376
C         -1.58106       -0.33014       -0.11547
C         -1.30601        1.11005       -0.19138
C         -2.31743        2.09927        0.02243
N         -3.09422        2.92048        0.18696
C          0.00986        1.62541       -0.50640
N          0.64761        2.50694       -0.68683
N          1.14294        1.00103       -0.53817
C          1.97135        0.04178       -0.27926
H          4.54122       -1.81501        0.63883
H         -1.20434       -3.62593       -0.49168
H         -3.52636       -2.98834        0.41054
H          1.36495        3.15937       -1.00077
H         -0.24284        2.99043       -0.79971
