35
Coordinates from ORCA-job ./opt_b97-3c_parallel
N          1.16771       -2.99666        0.18639
C          0.95286       -1.94091       -0.05825
C         -0.08362       -1.92292       -0.95040
C         -1.35453       -1.68654       -0.51282
N         -1.95922       -2.60899       -0.43917
C         -1.74336       -0.35571       -0.15637
C         -3.01327       -0.08277        0.44206
N         -4.02220       -0.25625        0.85102
N         -2.95429        1.21514        0.71130
C         -1.76126        1.66173        0.31457
N         -1.91043        2.72122        0.59644
C         -0.82440        0.75044       -0.32252
C          0.47222        1.15514       -0.82613
N          0.42090        2.14159       -1.32426
C          1.59086        0.51977       -0.16524
C          2.83045        1.17296        0.12962
N          3.24668        2.18612       -0.00820
C          3.61073        0.27940        0.81409
C          2.97856       -0.88236        0.95235
C          1.76625       -0.81298        0.33629
H          0.93486       -3.98812        0.15871
H          2.16865       -2.92971        0.00803
H          0.12674       -1.92204       -2.01931
H         -1.32758       -3.29795       -0.03026
H         -2.67763       -3.13633       -0.93423
H         -4.97693       -0.18159        1.19950
H         -3.75704       -1.23717        0.93494
H         -2.43781        3.57801        0.75933
H         -1.08743        2.98710        0.05295
H          0.35826        1.96752       -2.32765
H          1.39600        2.38425       -1.14401
H          3.05505        3.17000        0.17218
H          4.26038        2.08249        0.01564
H          4.60373        0.48320        1.21286
H          3.37832       -1.75512        1.46610
