27
Coordinates from ORCA-job ./opt_b97-3c_parallel
N          3.80709        2.37959        0.34295
C          3.20453        1.41360        0.23979
C          2.48654        0.17821        0.13022
C          2.97027       -1.10049       -0.03545
N          3.99752       -1.50018       -0.13129
C          2.00423       -2.07272       -0.07448
C          0.87533       -1.31828        0.06651
N         -0.29409       -1.89020        0.10247
C         -1.57684       -1.68594        0.12849
N         -1.61052       -2.59388        0.76081
C         -2.31578       -0.62679       -0.33300
C         -3.26277       -0.79176       -0.88566
N         -4.35817       -1.08456       -1.04168
C         -1.86594        0.65872       -0.17683
N         -2.35621        1.95220       -0.23528
C         -2.02273        3.21661       -0.11425
C         -0.84381        2.66291        0.12583
C         -0.71458        1.34247        0.10301
N          0.27653        0.87571        0.29979
C          1.06196        0.09727        0.18896
H          4.43347       -2.28922       -0.60507
H          4.68707       -0.75009       -0.11501
H          2.03784       -2.88685       -0.79743
H         -1.40908       -3.58962        0.82008
H         -2.62439       -2.49848        0.74350
H         -2.92656        3.81886       -0.29066
H          0.01000        3.30594        0.33783
