24
Coordinates from ORCA-job ./opt_b97-3c_parallel
N         -3.66382       -3.14606        0.03214
C         -2.74681       -2.47795       -0.08700
C         -1.56912       -1.67653       -0.23231
C         -0.36869       -2.41670       -0.59619
N          0.93777       -2.17764       -0.30863
C          1.68451       -1.06661       -0.13144
N          2.98965       -1.09061        0.30352
C          3.49610        0.20013        0.21283
N          4.53744        0.43491        0.51090
N          2.49125        0.99956       -0.32867
C          1.36200        0.24072       -0.57083
N          0.24111        0.50986       -1.14460
C         -0.83001        0.72627       -0.46148
C         -1.46672        1.88628       -0.06321
C         -0.82950        3.13876       -0.31863
N         -0.25615        4.10375       -0.52553
C         -2.65413        1.56819        0.53128
C         -2.82088        0.25619        0.55490
C         -1.71322       -0.30274       -0.00861
H         -0.46397       -3.51051       -0.70138
H          4.95813        1.36608        0.57313
H          5.31087       -0.20465        0.71336
H         -3.37463        2.29224        0.90979
H         -3.68942       -0.25492        0.96958
