29
Coordinates from ORCA-job ./opt_b97-3c_parallel
N         -2.95634        2.79678        0.70078
C         -2.06958        2.12366        0.44587
C         -0.94631        1.25154        0.17109
C          0.21364        2.01902       -0.04411
N          0.30205        3.13161       -0.07896
C          1.62235        1.74031       -0.34721
C          2.37294        0.59369       -0.19509
N          3.73900        0.73290       -0.34175
C          4.35868       -0.47441       -0.05789
N          5.44384       -0.66755       -0.09318
N          3.36749       -1.39131        0.25688
C          2.15027       -0.75167        0.18372
C          0.98085       -1.56507        0.31357
C         -0.34195       -1.25266        0.12477
N         -1.45854       -1.90426        0.07706
C         -2.74917       -1.94588       -0.06885
N         -3.08409       -3.00362       -0.10371
C         -2.52199       -0.58244       -0.04020
C         -3.91855       -0.24157       -0.16057
N         -4.69227       -0.03340       -0.97630
C         -1.19793       -0.18197        0.06246
H         -0.60200        3.60602       -0.07308
H          0.99200        3.88277       -0.04588
H          2.27988        2.57765       -0.63390
H          6.14248        0.02091       -0.37508
H          5.96606       -1.51104        0.14492
H          1.20386       -2.61441        0.48830
H         -4.01766       -2.66844       -0.35387
H         -3.18265       -4.01579       -0.00549
