24
Coordinates from ORCA-job ./opt_b97-3c_parallel
N          0.13539        2.32202        0.48398
C         -0.10118        1.27291        0.23547
C         -1.41595        0.67457        0.11570
C         -2.61384        1.43412        0.27281
C         -3.68973        0.63404        0.03425
C         -3.27308       -0.59473       -0.26044
C         -1.91366       -0.64192       -0.19614
C         -1.15425       -1.86218       -0.27971
N          0.08833       -2.04201        0.01660
C          1.34695       -1.86750        0.23776
C          1.90600       -0.56038        0.11349
C          3.30695       -0.35755        0.31178
N          3.25178        0.71578        0.07273
C          2.40255        0.84460       -0.61604
C          1.05013        0.54073       -0.22551
H         -0.59770        2.76235       -0.06736
H          1.00105        2.82043        0.28576
H         -2.63452        2.49593        0.49690
H         -4.72834        0.95371        0.07020
H         -3.92139       -1.43565       -0.49440
H         -1.57825       -2.86051       -0.46304
H          1.80203       -2.83875        0.48122
H          4.03570       -1.13952        0.57320
H          2.58367        1.86836       -0.97740
