25
Coordinates from ORCA-job ./opt_b97-3c_parallel
N          3.46419       -2.85835       -0.08791
C          2.55355       -2.19481        0.09844
C          1.38140       -1.41187        0.35344
C          0.29934       -1.92402        1.11943
N         -0.51122       -2.64231        0.35678
C         -1.55790       -2.04857       -0.22757
N         -2.57459       -2.77973       -0.79007
C         -3.65458       -1.92549       -0.95067
N         -3.32982       -0.67374       -0.45042
C         -2.01839       -0.70817       -0.02405
C         -1.38110        0.51942        0.46555
C         -2.28124        1.57207        0.84046
N         -3.02611        2.37370        1.16762
C          0.05019        0.80966        0.27006
C          0.59146        2.13216        0.03889
C         -0.08250        3.39082       -0.07181
N         -0.61160        4.39509       -0.19816
C          1.90939        2.22194       -0.33045
C          2.25033        0.89786       -0.30764
C          3.62624        0.60101       -0.55836
N          4.71970        0.36587       -0.79206
C          1.20383       -0.01160        0.06527
H          0.58972       -2.96741        1.32283
H         -4.68227       -2.01464       -1.33779
H          2.22799        2.86572       -1.15037
