24
Coordinates from ORCA-job ./opt_b97-3c_parallel
N          5.39496       -1.29306       -0.25823
C          4.48660       -0.61631       -0.10392
C          3.22643        0.05496       -0.03214
C          3.24729        1.48583       -0.00852
N          2.31662        2.07409        0.04377
C          1.50595        1.00715        0.05528
N          0.16177        1.04674        0.11370
C         -1.16382        0.82990        0.06646
N         -2.09446        1.79342        0.01852
C         -2.95132        1.10586       -0.04123
N         -4.19125        1.67909       -0.12886
C         -2.77335       -0.32004       -0.03091
C         -3.85893       -1.25264       -0.11050
N         -4.54895       -2.16415       -0.12164
C         -1.69768       -0.57628        0.04541
C         -0.94308       -1.76331        0.11142
C          0.47869       -1.92980        0.22003
N          1.45172       -1.44934        0.04011
C          2.19222       -0.32604        0.00979
H          4.09348        2.16279       -0.03641
H         -5.02389        1.09947       -0.11340
H         -4.29835        2.68476       -0.05668
H         -1.41303       -2.74388        0.09021
H          1.04660       -2.85177        0.26880
