23
Coordinates from ORCA-job ./opt_b97-3c_parallel
N          0.46086        2.98404       -0.04986
C          0.07405        1.95258       -0.13096
C         -1.24386        1.59972        0.29759
C         -1.79991        0.28670        0.05784
C         -3.21420        0.18783        0.17965
C         -3.56900       -1.09587       -0.04434
C         -2.46382       -1.79031       -0.27380
C         -1.34171       -1.00666       -0.19616
C         -0.02169       -1.60695       -0.09684
C          1.21597       -0.99947       -0.01606
N          2.32594       -1.74092        0.29914
C          3.41089       -0.88546        0.22297
N          2.97164        0.36360       -0.19147
C          1.60581        0.31506       -0.35889
N          0.80488        1.18639       -0.85950
H         -0.40445        3.52183       -0.08682
H          1.21640        3.65700       -0.17319
H         -1.89621        2.38521        0.67139
H         -3.87594        1.02009        0.40098
H         -4.58337       -1.48798       -0.04611
H         -2.45456       -2.85669       -0.49045
H         -0.02797       -2.69212       -0.03532
H          4.33162       -1.42981        0.48605
