25
Coordinates from ORCA-job ./opt_b97-3c_parallel
N          4.73778       -1.59836       -0.22147
C          3.66385       -1.23021       -0.09723
C          2.33008       -0.74483        0.10545
C          1.41803       -1.37766        0.99407
N          0.62942       -2.22094        0.34351
C         -0.57365       -1.83449       -0.09585
N         -1.48726       -2.77929       -0.51003
C         -2.71526       -2.15655       -0.59756
C         -2.60077       -0.78570       -0.20723
C         -3.71800        0.10752       -0.26204
N         -4.63286        0.78953       -0.33190
C         -1.20525       -0.55257        0.09705
C         -0.66647        0.76230        0.48260
C         -1.55941        1.78065        0.95147
N         -2.24302        2.60106        1.35644
C          0.69289        1.20743        0.15128
C          1.00879        2.60121        0.01184
C          2.27187        2.74929       -0.46725
C          2.81740        1.55502       -0.64674
C          1.93980        0.59249       -0.23859
H          1.95252       -2.31646        1.21164
H         -3.69846       -2.55481       -0.89502
H          0.30262        3.41337        0.15430
H          2.74833        3.69930       -0.69850
H          3.81817        1.38382       -1.03965
