29
Coordinates from ORCA-job ./opt_b97-3c_parallel
N         -1.74838       -1.46779       -1.58672
C         -1.37022       -1.03183       -0.64645
C         -0.84646       -1.88891        0.37278
C          0.58976       -1.85528        0.52321
N          0.90820       -2.83376        0.92839
C          1.39708       -0.74686        0.03804
C          2.81192       -0.92498       -0.09968
C          3.53640        0.18433       -0.46045
C          2.50764        1.09377       -0.47123
N          2.93612        2.09317       -0.67043
C          1.19891        0.59287       -0.19255
C          0.13657        1.55523        0.03358
C         -1.19981        1.17254        0.39733
C         -2.14476        2.13578        0.84401
N         -2.74392        1.18342        0.78822
C         -3.21353        0.19444        0.52018
C         -1.83405        0.00439        0.22672
H         -2.20402       -2.36324       -1.42113
H         -2.48310       -0.76343       -1.62285
H         -1.41943       -2.73359        0.75648
H          0.40987       -3.70498        0.75856
H          1.71662       -2.83722        0.31026
H          3.27279       -1.88878        0.09134
H          4.48672        0.38879        0.03490
H          3.74682        2.70252       -0.57870
H          2.33170        2.50527       -1.37894
H          0.37664        2.61373        0.01357
H         -2.01986        3.21393        1.02605
H         -4.28934       -0.03229        0.56505
