23
Coordinates from ORCA-job ./opt_b97-3c_parallel
N         -4.51752        1.62074       -0.02103
C         -3.44870        1.21889        0.00103
C         -2.11570        0.69613       -0.00156
C         -1.33512        1.82393       -0.02337
N         -0.07101        2.26149       -0.01978
C          1.10520        1.53804        0.00453
N          2.30108        2.20124        0.02491
C          3.26182        1.20698        0.03777
C          2.80612       -0.08794        0.01950
C          3.71628       -0.71549        0.00531
N          4.33380       -1.67612       -0.03849
C          1.46082        0.15928        0.00512
N          0.76452       -1.03513       -0.00964
C         -0.56770       -1.39447       -0.00738
C         -0.85114       -2.72401       -0.00629
C         -2.16893       -2.85434        0.01666
C         -2.77818       -1.67727        0.02893
C         -1.81970       -0.70657        0.01251
H         -1.54797        2.90491       -0.03994
H          4.18226        1.81281        0.06067
H         -0.12994       -3.53917       -0.02027
H         -2.68774       -3.81016        0.02519
H         -3.85523       -1.52605        0.05101
