24
Coordinates from ORCA-job ./opt_b97-3c_parallel
N          0.86023       -3.61661       -0.09931
C          0.66111       -2.26462       -0.02441
C          1.85281       -1.51814        0.03922
C          2.08031       -0.13297        0.11584
C          2.95097        0.53551        0.23867
C          2.79694        1.95619        0.18722
N          1.74133        2.21391        0.01603
C          1.17775        1.01279       -0.18488
N          0.18846        0.77900       -1.05598
C         -0.77801        0.69786       -0.13151
N         -1.83624        1.51584       -0.03250
C         -2.44391        0.60968        0.21415
N         -3.76276        0.97186        0.25194
N         -2.61293       -0.47946        0.40042
C         -1.30043       -0.63243        0.17552
C         -0.69160       -1.89643        0.09830
H          0.06527       -4.21745       -0.28875
H          1.78446       -3.96297       -0.33230
H          2.76129       -2.11732        0.07946
H          3.92867        0.08881        0.39287
H          3.54556        2.73386        0.28255
H         -4.03252        1.90188       -0.04691
H         -4.47909        0.25481        0.28060
H         -1.38663       -2.73095        0.17912
