26
Coordinates from ORCA-job ./opt_b97-3c_parallel
N          1.17219        2.79028        0.32264
C          0.72087        1.81212        0.06934
C          1.29043        1.03658       -0.89030
C          1.97865        0.08046       -0.21900
C          3.31881       -0.01353       -0.00305
C          3.57763       -1.24083        0.42582
C          2.47210       -1.96357        0.52758
C          1.42490       -1.17709        0.16309
N          0.12103       -1.55635       -0.12172
C         -1.01983       -0.75758       -0.21653
C         -2.22767       -1.45965       -0.45743
C         -3.27821       -0.54164       -0.15550
N         -4.38233       -0.55066       -0.13140
N         -2.71844        0.65512        0.26948
C         -1.38097        0.51251        0.20482
C         -0.60719        1.60116        0.57299
H          0.85499        3.75873        0.29802
H          2.18330        2.82311        0.45002
H          1.67154        1.45622       -1.82027
H          4.05327        0.77071       -0.17205
H          4.57315       -1.60994        0.66332
H          2.41290       -2.99972        0.85287
H         -2.33195       -2.50678       -0.72567
H         -5.03851        0.22983       -0.14541
H         -4.94976       -1.39701       -0.08551
H         -1.06922        2.43911        1.09365
