25
Coordinates from ORCA-job ./opt_b97-3c_parallel
N         -2.21793       -3.73972        0.12813
C         -1.44822       -2.89992        0.19442
C         -0.45808       -1.87670        0.32293
C          0.84629       -2.25536        0.83330
N          1.97445       -1.99531        0.12963
C          2.59844       -0.81474       -0.09428
N          3.76481       -0.69628       -0.80920
C          4.14729        0.63524       -0.74712
N          3.21826        1.33015        0.01750
C          2.24197        0.45673        0.44782
N          1.19775        0.66664        1.18379
C          0.02906        0.56759        0.63605
C         -0.77357        1.70670        0.28106
C         -0.34990        3.07411        0.40140
N          0.60536        3.37779       -0.15280
C         -2.02248        1.49708       -0.25653
N         -3.14222        2.22987       -0.11472
C         -1.96345        0.12465       -0.31737
C         -2.99910       -0.57516       -1.01879
N         -3.79834       -1.13569       -1.60997
C         -0.76118       -0.45566        0.21841
H          0.87861       -3.35706        0.88005
H          5.05861        1.01832       -1.23692
H         -3.11976        3.24440       -0.21938
H         -4.02730        1.90272       -0.50422
