22
Coordinates from ORCA-job ./opt_b97-3c_parallel
N         -4.24079        1.02713        0.04403
C         -2.94070        0.61130        0.03415
C         -2.61881       -0.78235        0.01147
C         -1.55157       -1.05920        0.00595
C         -0.75416       -2.21467       -0.01219
C          0.67905       -2.31196       -0.01354
N          1.64586       -1.78488       -0.01115
C          2.32002       -0.62079       -0.00496
C          3.29633       -0.11071       -0.00876
C          3.32033        1.31905        0.00230
N          2.32216        1.78374        0.01404
C          1.56712        0.67695        0.01199
N          0.22300        0.65152        0.02279
C         -1.08979        0.36976        0.02722
N         -2.07014        1.28386        0.04323
H         -4.99063        0.35846       -0.08906
H         -4.45292        2.01411       -0.05214
H         -3.39200       -1.54443        0.00168
H         -1.19827       -3.20691       -0.02661
H          1.29348       -3.20419       -0.00776
H          4.21278       -0.69167       -0.02065
H          4.16787        1.99381        0.00083
