24
Coordinates from ORCA-job ./opt_b97-3c_parallel
N          4.40507       -0.80553       -0.16908
C          3.31405       -0.62414       -0.08852
C          2.26195       -1.49811        0.04857
C          1.12221       -0.74262        0.04069
C         -0.17357       -1.41650        0.09794
C         -1.48088       -0.98428        0.01858
C         -2.37798       -1.96177       -0.12193
C         -3.67650       -1.69198       -0.15405
N         -3.32892       -0.43337       -0.01229
C         -2.11909        0.21168        0.10403
N         -1.98876        1.57432        0.16715
C         -0.65418        1.88536        0.09761
N         -0.78736        2.98705        0.13227
N          0.72079        1.84432        0.01148
C          1.46385        0.65870       -0.03147
N          2.83936        0.68310       -0.11105
H          4.91723       -1.56938        0.28094
H          5.11259       -0.33836       -0.74287
H          2.34875       -2.38050        0.68313
H         -0.03227       -2.49175        0.19303
H         -2.07536       -3.00616       -0.20335
H         -4.62282       -2.25119       -0.25016
H         -1.55958        3.51733       -0.28260
H         -0.23732        3.70139        0.61702
