26
Coordinates from ORCA-job ./opt_b97-3c_parallel
N         -4.81773       -1.15365       -0.28545
C         -3.52438       -0.85088       -0.11157
C         -2.48826       -1.71040        0.05838
C         -1.30474       -0.93528        0.11663
C          0.00425       -1.51952        0.23074
C          1.14319       -0.77062        0.17695
N          2.38538       -1.17926        0.05367
C          3.69546       -0.77597       -0.06513
N          4.62017       -1.37298       -0.16152
N          3.12241        0.48438       -0.01270
C          1.74247        0.45444        0.10800
N          1.46740        1.81722        0.06663
C          0.11448        2.13712        0.05875
N         -0.13219        3.21546        0.04649
N         -1.02596        1.51878        0.03240
C         -1.65599        0.38776        0.01807
C         -3.02000        0.38340       -0.12874
H         -5.54893       -0.44965       -0.18901
H         -5.19583       -2.05179        0.01624
H         -2.52343       -2.79556        0.09839
H          0.05731       -2.60226        0.30543
H          4.84895       -2.32557        0.12943
H          5.45979       -1.03373       -0.63559
H          0.42874        4.05717        0.19338
H         -1.08743        3.56254       -0.06734
H         -3.62486        1.27749       -0.27708
