32
Coordinates from ORCA-job ./opt_b97-3c_parallel
N         -2.84365       -2.52416        0.07150
C         -1.82354       -1.64521        0.14645
C         -0.61918       -2.21219        0.34440
C          0.65008       -1.77567        0.35564
N          1.64691       -2.62134        0.68997
C          1.11295       -0.52522       -0.00464
C          2.23000       -0.47044       -0.79755
N          3.02353       -0.90423       -1.43991
N          2.89112        0.68844       -0.68303
C          2.19300        1.45587        0.25387
N          2.76974        2.40009        0.29544
C          1.01626        0.76361        0.42152
C         -0.13975        1.39521        0.59720
N         -0.25766        2.69458        0.93778
C         -1.26713        0.69366        0.28603
C         -2.18911        1.32297       -0.50042
N         -3.44697        1.27457       -0.86183
C         -3.40569        0.07842       -0.18431
C         -2.12408       -0.33655        0.05463
H         -2.76200       -3.44851        0.49272
H         -3.80453       -2.20999        0.20097
H         -0.67831       -3.28682        0.52908
H          1.42371       -3.60743        0.83604
H          2.29594       -2.37037        1.43587
H          2.64412       -1.85174       -1.37542
H          3.95467       -1.01353       -1.84585
H          1.96541        2.99854        0.49764
H          3.57396        3.02922        0.25788
H          0.06223        2.99803        1.85743
H         -1.16160        3.15136        0.80407
H         -2.42504        2.24430       -1.05845
H         -4.46307       -0.16116       -0.37854
