24
Coordinates from ORCA-job ./opt_b97-3c_parallel
N         -3.03080        2.82023        0.01404
C         -1.99861        2.33008        0.00954
C         -1.38573        1.41116       -0.08036
C         -0.13906        1.94255       -0.13023
N          1.18970        1.98530       -0.13570
C          1.97736        0.90119       -0.06286
N          3.34921        0.98709       -0.00113
C          3.84718       -0.31130        0.08200
N          4.94741       -0.43022        0.18423
C          2.81862       -1.23067        0.04160
C          1.66496       -0.49754       -0.01999
N          0.48105       -1.27051       -0.01879
C         -0.91591       -1.06773       -0.03101
N         -1.74757       -2.16924        0.00832
C         -3.07549       -1.76316        0.02421
N         -4.02081       -2.33612        0.06885
N         -3.05110       -0.37710       -0.01403
C         -1.74914        0.09687       -0.04711
H          0.35088        2.93038       -0.21062
H          5.52023       -1.27406        0.07873
H          5.63163        0.28688        0.44628
H          2.92774       -2.16369       -0.51201
H         -4.19615       -3.33512       -0.06516
H         -4.93479       -1.94747        0.31490
