24
Coordinates from ORCA-job ./opt_b97-3c_parallel
N         -3.77025       -2.62962        0.00221
C         -2.90813       -1.88088        0.00826
C         -1.79627       -0.97945        0.01567
C         -0.72910       -1.84090        0.06987
N          0.60730       -1.90848        0.06395
C          1.54571       -0.89470        0.02144
N          2.86875       -1.27716       -0.01320
C          3.66999       -0.14397       -0.01990
N          4.76592       -0.00714       -0.05101
N          2.83950        0.96436        0.02612
C          1.53317        0.52878        0.04737
C          0.52825        1.55436        0.08705
C         -0.90207        1.45704        0.03205
C         -1.64904        2.67269        0.01589
C         -2.97398        2.39221       -0.05912
C         -3.13439        1.07661       -0.08695
C         -1.91882        0.45043       -0.02864
H         -0.61996       -2.93747        0.10774
H          5.28088        0.87450       -0.02289
H          5.47687       -0.73229       -0.16086
H          0.91194        2.57138        0.11774
H         -1.20250        3.66222        0.04799
H         -3.77449        3.12821       -0.10005
H         -4.10189        0.58222       -0.15647
