23
Coordinates from ORCA-job ./opt_b97-3c_parallel
N          2.61051        3.74649       -0.05727
C          1.92843        2.83057       -0.04384
C          1.03915        1.70921       -0.02605
C         -0.17986        2.33455       -0.08624
N         -1.49938        2.13240       -0.06348
C         -2.19555        0.94456        0.01121
N         -3.56638        1.04014        0.05837
C         -4.09348       -0.24001        0.08565
N         -3.05037       -1.14777        0.04019
C         -1.87208       -0.44145       -0.00129
C         -0.67648       -1.23710       -0.04488
C          0.71566       -0.87587       -0.00020
C          1.64396       -1.89546        0.02080
C          1.74739       -3.32355        0.00732
N          1.07680       -4.20613       -0.27137
C          2.88302       -1.32500        0.08502
C          2.78241       -0.00597        0.10028
C          1.46815        0.34046        0.04227
H         -0.58788        3.35687       -0.14304
H         -5.12785       -0.61628        0.12835
H         -0.86510       -2.30687       -0.06436
H          3.82829       -1.86568        0.12967
H          3.62627        0.67857        0.16117
