22
Coordinates from ORCA-job ./opt_b97-3c_parallel
N         -3.36075        2.73439        0.04409
C         -2.90502        1.68715        0.03101
C         -2.30063        0.39297        0.01546
C         -3.11140       -0.78570        0.00730
N         -2.34978       -1.89016       -0.00702
C         -1.05478       -1.41712       -0.00785
N         -0.16257       -2.41731       -0.02207
C          1.21543       -2.48247       -0.02891
C          2.32679       -1.58433       -0.02407
C          2.37683       -0.15663       -0.00898
C          3.56821        0.50444       -0.00646
C          3.31743        1.80560        0.00801
C          2.01617        2.05071        0.01531
C          1.37121        0.85373        0.00522
N         -0.00420        0.92140        0.01105
C         -0.98562        0.01015        0.00589
H         -4.21100       -0.83749        0.01154
H          1.56614       -3.52594       -0.04128
H          3.29575       -2.07548       -0.03323
H          4.55679        0.05024       -0.01485
H          4.08481        2.57643        0.01344
H          1.55320        3.03655        0.02738
