26
Coordinates from ORCA-job ./opt_b97-3c_parallel
N         -3.94474       -2.76960        0.01190
C         -3.56235       -1.69367        0.00282
C         -3.12583       -0.33375       -0.00465
C         -4.08241        0.73052       -0.01721
N         -3.47005        1.92440       -0.02113
C         -2.12497        1.62225       -0.01204
N         -1.36730        2.72831       -0.00830
C         -0.00864        2.96869        0.00110
C          1.21299        2.22620        0.00146
C          1.45012        0.81107       -0.00031
C          2.75932        0.37753       -0.00056
C          4.02607        1.05366       -0.00208
N          4.71247        1.96739       -0.02720
C          2.74808       -1.06121        0.00251
N          3.59926       -1.77116        0.00330
C          1.43585       -1.48515        0.00630
C          0.92100       -2.82758        0.01361
N          0.47905       -3.88110        0.02669
C          0.58444       -0.32291        0.00346
N         -0.77777       -0.55806        0.00572
C         -1.87083        0.21656       -0.00231
H         -5.17875        0.63089       -0.02261
H          0.17671        4.05401        0.00265
H          2.09295        2.86112        0.00410
H          3.59995       -2.79081        0.00692
H          4.57661       -1.48149       -0.00720
