31
Coordinates from ORCA-job ./opt_b97-3c_parallel
N         -5.35465       -0.67205        0.20411
C         -4.22592       -0.52090        0.11387
C         -2.80844       -0.29879        0.03011
C         -1.84966       -1.36535        0.21132
N         -2.09887       -2.42669        0.40554
C         -0.56300       -0.73850        0.06601
C          0.59136       -1.61941        0.05355
C          1.93436       -1.18360       -0.20522
C          2.93169       -2.09770       -0.35492
N          4.17326       -1.71366       -0.53973
C          3.60662       -0.46435       -0.48794
C          2.37728        0.09442       -0.30060
C          2.07439        0.94557        0.72274
N          2.79324        1.63994        1.20488
N          1.45181        1.99132        0.16208
C          0.15859        1.74181       -0.30804
N          0.28182        2.82098       -0.50830
C         -0.74299        0.61133       -0.16584
C         -2.15004        0.89218       -0.21743
N         -2.66361        1.86313       -0.37318
H         -1.60716       -3.22335        0.80756
H         -3.08807       -2.67389        0.39525
H          0.43502       -2.69073        0.15817
H          2.93003       -3.19866       -0.41396
H          4.66420       -0.17830       -0.60934
H          3.55493        1.12209        1.64280
H          2.84627        2.58835        1.57556
H          0.49443        3.77483       -0.80095
H         -0.53079        2.53377       -1.05228
H         -2.59459        2.87898       -0.33705
H         -3.65991        1.65142       -0.30848
