26
Coordinates from ORCA-job ./opt_b97-3c_parallel
N          2.64595       -3.49019       -0.75922
C          2.62100       -2.40933       -0.39378
C          2.52438       -1.05066        0.05270
C          3.86550       -0.83964        0.19817
N          3.63898        0.45472        0.13646
C          2.28823        0.70111        0.04131
N          2.05358        2.06278       -0.02942
C          0.70387        2.36292       -0.06005
N          0.89123        3.45428       -0.12886
N         -0.67821        2.44302       -0.07808
C         -1.50944        1.31602       -0.00649
N         -2.89498        1.42522        0.00071
C         -3.46828        0.16058        0.07791
N         -4.57831        0.15835        0.08986
C         -2.41208       -0.81115        0.11773
C         -2.59699       -2.22669        0.17898
N         -2.71609       -3.36071        0.20381
C         -1.17107       -0.08969        0.07165
C          0.09684       -0.80899        0.10320
C          1.37129       -0.30817        0.05243
H          4.89849       -1.21587        0.28984
H          1.39514        4.04405        0.54048
H          0.68488        4.08634       -0.90830
H         -5.32597        0.70596        0.52520
H         -5.05877       -0.67000       -0.27434
H          0.00072       -1.88842        0.17341
