20
Coordinates from ORCA-job ./opt_b97-3c_parallel
N         -4.42538        1.37592       -0.65205
C         -3.53501        0.71020       -0.39405
C         -2.41350       -0.12469       -0.10937
C         -2.58164       -1.42903        0.47152
N         -1.39908       -2.05845        0.60858
C         -0.49549       -1.12695        0.15234
N          0.79941       -1.50189        0.03853
C          1.91703       -0.67533       -0.15104
N          3.15935       -1.19132       -0.40089
C          4.04054       -0.14030       -0.21743
C          3.49530        1.03292        0.23610
C          2.17513        0.69438        0.21797
N          1.27085        1.63456        0.69426
C          0.00949        1.65528        0.14927
N         -0.41630        1.03067       -0.89742
C         -1.07710        0.07840       -0.33569
H         -3.56142       -1.85690        0.73631
H          5.12617       -0.26630       -0.35478
H          3.83529        1.99035       -0.15491
H         -0.29033        2.53179        0.74756
