24
Coordinates from ORCA-job ./opt_b97-3c_parallel
N         -4.28425        0.54186        0.14364
C         -3.21762        0.29526       -0.02987
C         -2.49232       -0.56911       -0.92084
C         -1.05725       -0.52122       -0.70097
C         -0.77140       -1.65528        0.13790
C          0.59732       -2.08877        0.21466
N          1.15600       -2.97749        0.54505
N          1.67973       -1.38499       -0.17611
C          1.94982       -0.07117       -0.35679
N          3.20309        0.33202       -0.72820
C          3.23232        1.69713       -0.49641
C          2.10460        2.21689        0.09019
C          1.30041        1.11477        0.13204
N          0.01077        1.30519        0.63517
C         -1.06443        0.49503        0.30962
N         -2.28974        0.97776        0.72024
H         -5.07844       -0.08642       -0.00544
H         -4.71565        1.43279        0.40372
H         -3.00781       -1.20359       -1.63747
H         -1.52885       -2.34520        0.50785
H          0.54827       -3.77384        0.74091
H          2.10467       -3.35486        0.55099
H          4.18185        2.20477       -0.73307
H          2.18465        2.89597        0.93785
