23
Coordinates from ORCA-job ./opt_b97-3c_parallel
N         -4.33211       -0.66846       -0.01345
C         -3.23555       -0.54327       -0.00285
C         -2.12454       -1.43326        0.01254
C         -0.96790       -0.60850        0.01293
C          0.26267       -1.34430        0.02158
C          1.60766       -0.86353        0.01025
N          2.59357       -1.72715        0.00862
C          3.67962       -1.03191       -0.00595
C          3.49104        0.26235       -0.01317
C          2.15027        0.40518       -0.00260
N          1.83959        1.70430       -0.00332
C          0.60766        2.32065        0.00434
C         -0.76841        1.92147        0.00302
C         -1.40176        0.69568        0.00291
N         -2.74979        0.75452       -0.00600
H         -5.04974        0.05591       -0.02052
H         -4.82581       -1.55687       -0.09732
H         -2.16022       -2.51905        0.01803
H          0.16891       -2.42745        0.02994
H          4.63325       -1.58123       -0.01113
H          4.25493        1.03831       -0.02598
H          0.88612        3.38553        0.00240
H         -1.41257        2.79712        0.00073
