28
Coordinates from ORCA-job ./opt_b97-3c_parallel
N         -5.78825       -0.11485        0.00330
C         -4.75697       -0.60165        0.00262
C         -3.44478       -1.16677       -0.00084
C         -3.19059       -2.50865       -0.01050
N         -1.85972       -2.56935       -0.01338
C         -1.19819       -1.35332       -0.00555
N          0.05142       -1.02628       -0.00539
C          1.23597       -0.50524       -0.00050
C          2.45352       -1.13677       -0.00456
C          2.70897       -2.54350       -0.01680
N          3.59832       -3.25951       -0.00573
C          3.48370       -0.13523        0.00615
N          4.57230        0.07510        0.00980
N          2.91392        1.08072        0.01736
C          1.52950        0.89740        0.01390
C          0.60675        1.95738        0.02459
C          1.29040        3.23681        0.04593
N          1.91664        4.19127        0.01854
C         -0.84144        1.66980        0.01667
N         -1.32659        2.66800       -0.00010
C         -2.17407        1.03953        0.01415
C         -2.24636       -0.40620        0.00345
H         -3.97488       -3.28164       -0.01410
H          5.17999        0.89790        0.00995
H          5.21241       -0.72340        0.00610
H         -2.29829        2.98375        0.00706
H         -0.79744        3.54098        0.01247
H         -3.15903        1.53147        0.02094
