26
Coordinates from ORCA-job ./opt_b97-3c_parallel
N          5.16181        1.76476        1.12043
C          4.39877        0.98109        0.79333
C          3.43814        0.02225        0.34736
C          3.67694       -1.32069        0.29502
N          2.54851       -1.82387       -0.19769
C          1.56604       -0.89369       -0.49112
N          0.36445       -1.03599       -0.95670
C         -0.84092       -0.92885       -0.48934
C         -1.80500       -1.86324       -0.17177
C         -1.75365       -3.29056       -0.26069
N         -0.82583       -3.85957        0.09151
C         -2.97870       -1.35382        0.33775
C         -2.72881       -0.01136        0.37321
C         -3.71607        0.91063        0.83933
N         -4.52991        1.62936        1.19325
C         -1.43548        0.31011       -0.12939
C         -0.81074        1.61091       -0.24899
C         -1.38060        2.86220        0.14326
N         -1.80073        3.87527        0.46169
C          0.40541        1.82544       -0.83275
C          1.61268        1.63389       -0.22386
C          2.14493        0.35707       -0.13407
H          4.61628       -1.80326        0.60684
H         -3.94671       -1.73218        0.01174
H          0.41339        2.24634       -1.83724
H          2.18175        2.49885        0.10598
