25
Coordinates from ORCA-job ./opt_b97-3c_parallel
N          4.25554       -0.04348        0.93698
C          3.21034        0.36316        0.71849
C          1.89915        0.84563        0.40553
C          2.19284        2.16446        0.58127
N          1.12371        2.63231       -0.02178
C          0.43460        1.51301       -0.43292
N         -0.72963        1.51015       -1.00001
C         -1.85615        1.62395       -0.37526
N         -2.26942        2.64160       -0.48175
C         -2.57162        0.57486        0.30795
C         -2.13261       -0.80571        0.32921
C         -3.07859       -1.78967        0.71439
C         -2.43232       -3.04791        0.48134
N         -1.14438       -2.83813        0.00064
C         -1.01113       -1.50733       -0.05148
C          0.30897       -1.01498       -0.37923
C          1.39060       -1.81919       -0.87576
N          1.98230       -1.83602       -1.85445
C          0.82786        0.23589       -0.18894
H          2.84998        2.95079        0.98688
H         -3.21796        2.36393       -0.73268
H         -2.20847        3.64091       -0.67461
H         -3.55678        0.80260        0.71011
H         -4.09854       -1.63342        1.05229
H         -2.70584       -4.10972        0.58233
