26
Coordinates from ORCA-job ./opt_b97-3c_parallel
N         -2.33128       -3.10598       -0.70476
C         -1.64167       -2.20445       -0.84693
C         -1.10049       -1.42000       -0.28429
C          0.16561       -1.89345       -0.05341
N          1.49863       -1.96145        0.12067
C          2.33541       -0.90028        0.03998
N          3.68544       -0.97148        0.29336
C          4.21071        0.30691        0.14978
N          5.28458        0.52416        0.31652
N          3.16595        1.15924       -0.20420
C          1.98348        0.44802       -0.28610
N          0.79013        0.86540       -0.58994
C         -0.48409        1.02120       -0.39387
C         -1.06207        2.25365       -0.26805
C         -2.34749        1.91692        0.08188
N         -2.95425        2.81425        0.29488
C         -2.60884        0.56575        0.11954
C         -3.80013       -0.14624        0.46522
N         -4.72479       -0.74701        0.75580
C         -1.38184       -0.07729       -0.21815
H          0.49937       -2.92328        0.16483
H          5.75560        1.42744        0.21621
H          6.02086       -0.10915        0.64035
H         -0.86378        3.03751       -1.00022
H         -3.83346        2.50673        0.71344
H         -3.11557        3.77851        0.00111
