29
Coordinates from ORCA-job ./opt_b97-3c_parallel
N         -4.98803        1.13600       -1.85588
C         -4.01884        1.16214       -1.25278
C         -2.82496        1.16971       -0.46778
C         -2.78369        2.44047        0.02132
N         -1.52381        2.49828        0.39047
C         -0.99343        1.24143        0.21031
N          0.23959        1.43716        0.56354
C          1.23822        0.63242        0.35822
C          2.59782        1.04523        0.16626
C          2.96984        2.42704        0.22843
N          3.21936        3.54086        0.28787
C          3.51653        0.04956       -0.08521
N          4.72677        0.18190       -0.65908
C          2.64686       -1.00961        0.01391
C          3.16098       -2.33640       -0.15999
N          3.09406       -3.01513       -1.07726
C          1.27131       -0.72050        0.27062
N          0.32245       -1.59607        0.37600
C         -0.90386       -2.01472        0.44859
N         -0.53483       -2.99836        0.77627
C         -2.07220       -1.22837        0.13550
C         -3.38502       -1.78597        0.21015
N         -4.44980       -2.19553        0.25487
C         -1.83611        0.15440       -0.21375
H         -3.38150        3.36204        0.10581
H          5.31461        0.99012       -0.45671
H          5.33474       -0.62766       -0.78129
H         -1.48411       -3.28401        1.01303
H          0.07523       -3.75440        1.08495
