21
Coordinates from ORCA-job ./opt_b97-3c_parallel
N          4.67664       -1.00598       -0.00003
C          3.89709       -0.16828        0.00721
C          2.52519        0.24504        0.00872
C          2.29999        1.65879        0.02265
N          1.31497        2.15282        0.02558
C          0.65277        0.98778        0.01233
N         -0.68582        0.86241        0.00802
C         -1.97252        0.46722        0.00099
N         -3.04107        1.27629        0.00663
C         -3.85087        0.52832       -0.00293
C         -3.36903       -0.81815       -0.01542
C         -2.28325       -0.99945       -0.01462
N         -1.28177       -1.89548       -0.02124
C         -0.20480       -2.11824       -0.02197
C          1.12386       -1.57722       -0.01339
C          1.52904       -0.23187        0.00158
H          3.01816        2.47144        0.03222
H         -4.87272        0.88861       -0.00177
H         -4.04758       -1.66503       -0.02567
H         -0.50470       -3.15943       -0.03179
H          1.84793       -2.38802       -0.02018
