29
Coordinates from ORCA-job ./opt_b97-3c_parallel
N         -5.41502       -0.31363        0.29531
C         -4.39899        0.20833        0.33492
C         -3.10726        0.83189        0.35288
C         -3.54369        1.90856        1.06690
N         -2.62556        2.80536        0.78377
C         -1.87759        1.91286        0.05015
N         -0.79340        2.23870       -0.57160
C          0.45978        2.52781       -0.57926
C          1.57217        1.66242       -0.30170
C          2.83568        2.32908       -0.37123
N          3.82157        2.89740       -0.46823
C          1.40127        0.21530       -0.08443
C          2.51029       -0.67115        0.20839
C          3.84649       -0.29798        0.58118
N          4.90244       -0.01722        0.91525
C          2.24539       -2.02599        0.23784
N          3.11544       -3.03308        0.46740
C          0.90037       -1.95721       -0.05129
C          0.33965       -3.28039       -0.01162
N         -0.32964       -3.61199        0.85479
C          0.33894       -0.65014       -0.22584
C         -1.08705       -0.49201       -0.47103
C         -2.00889       -1.49044       -0.93707
N         -2.09018       -1.66951       -2.06253
C         -1.90870        0.59223       -0.27793
H         -4.28852        2.44474        1.67753
H          0.56581        3.60470       -0.78549
H          4.00768       -2.84868        0.92542
H          2.78065       -3.94097        0.78766
