29
Coordinates from ORCA-job ./opt_b97-3c_parallel
N          5.53267        1.12884       -0.70186
C          4.67358        0.40700       -0.49267
C          3.57972       -0.46842       -0.20591
C          3.77943       -1.81660       -0.14260
N          2.57526       -2.27269        0.17905
C          1.59398       -1.30533        0.29734
N          0.38737       -1.43458        0.70624
C         -0.77274       -1.07025        0.30551
C         -1.82388       -2.03154        0.15291
C         -3.08003       -1.58117       -0.18337
N         -3.94366       -2.61150       -0.09124
C         -2.76338       -0.24490       -0.23515
C         -4.06323        0.25662       -0.58384
N         -4.37260        0.81447       -1.53296
C         -1.39537        0.09336        0.03215
C         -0.85332        1.44479        0.07957
C         -1.91280        2.42838        0.04990
N         -2.40584        2.89107        0.97239
C          0.50591        1.82307        0.13483
N          0.73887        2.91013        0.16667
C          1.79124        1.24546        0.05616
C          2.22881       -0.07333        0.02641
H          4.73177       -2.35026       -0.28887
H         -1.60001       -3.07954        0.34336
H         -4.93558       -2.45891       -0.27177
H         -3.70294       -3.52683       -0.46792
H          1.49895        3.55073       -0.06123
H         -0.03136        3.50001        0.48381
H          2.64683        1.92658       -0.02232
