25
Coordinates from ORCA-job ./opt_b97-3c_parallel
N          4.57552       -0.54725       -0.02072
C          3.24115       -0.43901        0.02801
C          2.33131       -1.43420        0.17817
C          1.04328       -0.84658        0.12994
C         -0.15786       -1.64006        0.22124
C         -1.43588       -1.15617        0.09623
C         -2.40099       -2.05726       -0.04120
C         -3.66532       -1.67414       -0.14819
N         -3.11540       -0.48454       -0.03962
C         -1.89179        0.12952        0.10603
N         -1.93051        1.51220        0.10970
C         -0.66828        2.07676        0.05677
N         -0.73816        3.17848        0.09335
N          0.53698        1.61640       -0.07111
C          1.20520        0.50982       -0.00882
C          2.56226        0.70348       -0.08100
H          5.13043        0.09152       -0.59045
H          5.01993       -1.46407       -0.06359
H          2.52342       -2.49765        0.28720
H          0.00691       -2.70477        0.36535
H         -2.17340       -3.12334       -0.06595
H         -4.59490       -2.25284       -0.26795
H         -1.51645        3.83860        0.11134
H          0.10196        3.74721        0.20718
H          3.04314        1.67116       -0.22538
