25
Coordinates from ORCA-job ./opt_b97-3c_parallel
N         -4.01677       -2.09332        0.66063
C         -3.34673       -1.19200        0.45935
C         -2.47077       -0.08911        0.19239
C         -3.44538        0.84205        0.39291
N         -2.66914        1.86920        0.12949
C         -1.43946        1.32424       -0.16612
N         -1.04321        2.65008       -0.20885
C          0.33058        2.78659       -0.24861
N          1.30341        1.94245       -0.13448
C          1.77665        0.74177       -0.03756
C          3.18047        0.56345        0.15752
C          3.51125       -0.75123        0.19827
N          4.70989       -1.32008        0.38653
C          2.38371       -1.41982        0.01500
C          1.32519       -0.56082       -0.09249
C         -0.08210       -0.86477       -0.23575
C         -0.41706       -2.24310       -0.44465
N         -0.72647       -2.63056       -1.47518
C         -1.15408       -0.01042       -0.16921
H         -4.45212        1.17720        0.69060
H          0.84940        3.75672       -0.30887
H          3.87527        1.39482        0.23618
H          5.43490       -0.83195        0.91050
H          4.78065       -2.31226        0.60784
H          2.31153       -2.50591       -0.00233
