25
Coordinates from ORCA-job ./opt_b97-3c_parallel
N         -2.39255        3.48981        0.05951
C         -1.72447        2.56356        0.02734
C         -0.86238        1.42115        0.01502
C          0.37870        2.00575        0.04642
N          1.69335        1.76299        0.02682
C          2.36022        0.55525       -0.00934
N          3.73964        0.65380       -0.04358
C          4.27005       -0.62375       -0.04543
C          3.20178       -1.56819       -0.00063
C          1.98639       -0.82534        0.01830
C          0.77480       -1.59375        0.05051
C         -0.59008       -1.15672        0.00689
C         -1.61226       -2.15004       -0.01529
C         -2.83903       -1.56788       -0.07456
N         -4.03269       -2.17271       -0.14100
C         -2.66006       -0.25165       -0.07977
C         -1.32936        0.06381       -0.02992
H          0.80157        3.02252        0.07663
H          5.33926       -0.88498       -0.07408
H          3.30427       -2.64934        0.00855
H          0.90861       -2.67252        0.07217
H         -1.41145       -3.21739        0.00063
H         -4.88666       -1.66311        0.08080
H         -4.14658       -3.13573        0.17060
H         -3.47284        0.47029       -0.13663
