27
Coordinates from ORCA-job ./opt_b97-3c_parallel
N         -3.57364       -2.89147        0.10387
C         -3.04656       -1.90603       -0.12593
C         -2.35840       -0.67199       -0.37553
C         -3.48064        0.06769       -0.60375
N         -3.10037        1.24005       -0.14815
C         -1.77776        1.10981        0.21113
N         -0.67938        1.60105        0.68921
C          0.33797        2.26359        0.25130
N          0.14052        3.34855        0.29661
C          1.58205        1.72576       -0.23710
C          1.99839        0.32953       -0.24774
C          3.30182        0.08054       -0.55285
C          3.20266       -1.22971       -0.17320
N          4.10862       -1.83824       -0.34744
C          2.10974       -1.96920        0.18729
C          1.29610       -0.88081        0.12902
C         -0.11221       -1.08575        0.37680
C         -1.06885       -0.10677       -0.05744
H         -4.54058        0.11404       -0.90331
H          1.08900        3.67291        0.48307
H         -0.44749        4.18197        0.30551
H          2.33305        2.44970       -0.54649
H          4.09993        0.71650       -0.17010
H          4.18729       -2.83797       -0.16609
H          5.05474       -1.50447       -0.52637
H          2.11977       -2.62094        1.05914
H         -0.40903       -2.08848        0.67259
