28
Coordinates from ORCA-job ./opt_b97-3c_parallel
N          3.95607       -1.22836        0.04108
C          2.96539       -0.32398       -0.02009
C          3.16838        0.98650       -0.14101
C          1.99553        1.69549       -0.16427
N          2.08636        2.79286       -0.25478
C          0.97326        0.78447       -0.05791
C         -0.41629        1.21254       -0.01281
C         -1.58694        0.36378        0.03680
C         -2.85817        1.01947        0.10159
N         -3.47150        1.93370        0.15713
N         -3.35101        0.03509        0.08273
C         -3.04156       -1.01983       -0.00559
C         -1.60851       -1.06428       -0.07269
C         -0.99562       -2.36186       -0.03268
N          0.04729       -2.38781        0.32288
C          0.92596       -1.73163        0.21106
C          1.61810       -0.49286        0.03460
H          3.78262       -2.14676        0.44499
H          4.89273       -0.93842        0.31422
H          4.15894        1.43631       -0.20478
H          1.26025        2.98020       -0.82016
H          2.76564        3.51859       -0.47487
H         -0.59659        2.28324       -0.02099
H         -4.37506        2.11733        0.58754
H         -2.75950        2.19234        0.83698
H         -3.84528       -1.72392       -0.26693
H         -1.43327       -3.18138       -0.62277
H          1.56683       -2.62325        0.28964
