27
Coordinates from ORCA-job ./opt_b97-3c_parallel
N         -1.28292        2.87594        0.24906
C         -0.76750        1.91703        0.05693
C         -1.40445        1.06225       -0.77926
C         -2.03688        0.03159       -0.17154
C         -3.37184       -0.13520        0.03354
C         -3.57463       -1.39565        0.39006
C         -2.43756       -2.07273        0.45230
C         -1.42766       -1.21963        0.13402
N         -0.10029       -1.54128       -0.11339
C          1.01278       -0.70194       -0.20227
C          2.27397       -1.33904       -0.35946
C          3.26923       -0.44890       -0.11943
N          4.59545       -0.64719       -0.15445
C          2.68336        0.70020        0.19832
C          1.31849        0.60579        0.14747
C          0.59264        1.74054        0.46594
H         -2.21242        3.27704        0.35542
H         -0.62285        3.65067        0.25965
H         -1.54950        1.28109       -1.83483
H         -4.13809        0.62628       -0.09029
H         -4.55187       -1.82202        0.60338
H         -2.32860       -3.12164        0.71688
H          2.38572       -2.41065       -0.49200
H          4.97484       -1.50177       -0.55761
H          5.22339        0.11958       -0.38699
H          3.22629        1.60889        0.45099
H          1.08706        2.60522        0.90269
