25
Coordinates from ORCA-job ./opt_b97-3c_parallel
N          1.69340       -3.84801       -0.02814
C          2.00457       -2.75040       -0.04149
C          2.33189       -1.36248       -0.04515
C          3.68463       -0.88026       -0.15493
N          3.71998        0.46824       -0.11251
C          2.39301        0.81409        0.01053
N          2.05450        2.13106        0.08085
C          0.70409        2.47987        0.09235
N          0.92083        3.56664        0.17133
N         -0.68481        2.63925        0.08919
C         -1.54078        1.52555        0.02234
N         -2.92595        1.47311       -0.08261
C         -3.34599        0.14842       -0.11322
N         -4.44341        0.00838       -0.20916
C         -2.18159       -0.68228       -0.00355
C         -2.16115       -2.10969        0.03215
N         -2.11196       -3.24812        0.08263
C         -1.03950        0.17732        0.06959
N          0.19590       -0.20816        0.17501
C          1.48410       -0.29156        0.05435
H          4.56647       -1.53347       -0.25613
H          0.44885        4.26293        0.75560
H          1.68396        4.09802       -0.25928
H         -5.21525        0.50801       -0.66003
H         -4.85673       -0.88861        0.06396
