24
Coordinates from ORCA-job ./opt_b97-3c_parallel
N          4.58631       -0.78522        0.17767
C          3.49353       -0.74395        0.02340
C          2.31801       -1.37782       -0.25847
C          1.14181       -0.68703       -0.16134
C         -0.07981       -1.48626       -0.04997
C         -1.42576       -1.14947        0.03703
N         -2.38645       -2.03985        0.29070
C         -3.59063       -1.36243        0.23843
N         -3.36349       -0.03779       -0.08854
C         -2.04208        0.10346       -0.22242
N         -1.41288        1.14149       -0.63087
C         -0.67228        2.05453       -0.11620
N         -1.21781        3.01088       -0.05139
C          0.72270        1.87348        0.13860
C          1.39611        0.67454       -0.02784
N          2.59246        0.18552       -0.01622
H          5.28034       -0.07265        0.40813
H          5.11478       -1.65304        0.07682
H          2.33685       -2.38274       -0.68227
H          0.12450       -2.55323        0.00148
H         -4.51700       -1.92974        0.42482
H         -2.15539        3.41409       -0.04431
H         -0.57977        3.80455       -0.12171
H          1.28687        2.76815        0.38933
