26
Coordinates from ORCA-job ./opt_b97-3c_parallel
N         -4.64480       -1.34824       -0.05412
C         -3.41610       -0.81037       -0.03956
C         -3.17190        0.48786       -0.03515
C         -1.83051        0.74727       -0.02416
C         -1.30115        2.09313       -0.02142
C          0.05625        2.61158       -0.00953
N          1.33311        2.16562        0.01164
C          1.80895        0.86870        0.02298
C          3.20314        0.61410        0.04791
C          3.39599       -0.72763        0.04820
N          4.55649       -1.40148        0.07060
C          2.18573       -1.28299        0.02494
C          1.18696       -0.33983        0.00777
N          0.05132       -0.92295       -0.01942
C         -1.13625       -0.44006       -0.02290
C         -2.19728       -1.39932       -0.03133
H         -4.79092       -2.30308        0.26770
H         -5.45092       -0.79265        0.22574
H         -3.94228        1.25589       -0.04234
H         -2.05899        2.86976       -0.02996
H          0.18563        3.70422       -0.01009
H          3.96290        1.38927        0.06055
H          4.60719       -2.35003       -0.29569
H          5.42723       -0.92654       -0.16034
H          2.02089       -2.36020        0.02252
H         -2.01712       -2.47044       -0.03457
