25
Coordinates from ORCA-job ./opt_b97-3c_parallel
N         -4.28501        0.19634        1.43936
C         -3.25379       -0.03893        1.00693
C         -1.95260       -0.35841        0.44589
C         -1.78608       -1.70009        0.06686
C         -0.72192       -2.50880       -0.36594
C          0.67696       -2.42351       -0.38060
C          1.56731       -1.37315       -0.11194
C          2.89974       -1.70502        0.13284
C          3.38269       -0.38214        0.44631
C          2.49405        0.74413        0.29680
N          2.63424        2.10071        0.38345
C          1.33225        0.07591       -0.11557
C          0.12886        0.66782       -0.62221
N          0.15906        1.58936       -1.22755
C         -0.67284        2.01344       -0.61238
N         -1.38623        1.80342        0.22053
C         -1.09459        0.73732        0.16166
H         -2.70575       -2.27910        0.13894
H         -1.06060       -3.51199       -0.61748
H          1.14768       -3.38807       -0.56210
H          3.25034       -2.73431        0.15366
H          4.40890       -0.23463        0.76726
H          1.91073        2.67840       -0.03083
H          3.57216        2.48318        0.42909
H         -0.75796        3.09268       -0.65178
