26
Coordinates from ORCA-job ./opt_b97-3c_parallel
N         -5.51311       -0.80209        0.50569
C         -4.44019       -0.45078        0.33230
C         -3.08536       -0.05535        0.11671
C         -2.67689        1.21406       -0.17154
C         -1.32386        1.03498       -0.33546
C         -0.54532        2.08798       -0.92840
N          0.68971        2.01094       -1.30013
C          1.45972        2.29372       -0.29817
C          1.91117        1.10215        0.19426
C          2.75835        1.45253        0.82382
N          3.83458        1.39746        1.21116
C          1.64670       -0.22854       -0.01473
N          2.54284       -1.27339       -0.08896
C          1.80831       -2.44034       -0.17256
N          2.52719       -3.27816       -0.21671
C          0.45485       -2.23600       -0.12086
C          0.36804       -0.87134       -0.09395
C         -0.89236       -0.26219       -0.07459
C         -2.01954       -0.98655        0.19047
H         -3.07430        2.07130        0.36765
H         -0.97819        3.06534       -1.19377
H          1.37174        3.35216        0.00272
H          2.31275       -4.27292       -0.14557
H          3.54105       -3.21632       -0.31212
H         -0.21050       -2.82932       -0.74616
H         -2.13622       -2.04026        0.42649
