29
Coordinates from ORCA-job ./opt_b97-3c_parallel
N          4.74102        1.36047        0.30570
C          3.77382        0.75743        0.23238
C          2.55365        0.01399        0.10325
C          2.37774       -1.32925       -0.13316
N          3.06652       -2.17936       -0.28825
C          1.06885       -1.73356       -0.15524
C          0.42540       -0.53607        0.00391
C         -1.02007       -0.41651        0.05947
C         -1.80100       -1.60757        0.18649
N         -2.05526       -2.67482        0.29730
N         -3.08806       -1.22826        0.14389
C         -3.24886        0.09611       -0.01507
N         -4.34837        0.19260       -0.06343
C         -1.94443        0.68865       -0.07366
C         -1.85919        2.04495       -0.37789
C         -0.76534        2.87864       -0.47830
C          0.51058        2.47194       -0.00882
N          1.02929        1.64230        0.46819
C          1.25462        0.60071        0.21835
H          3.26661       -3.14370       -0.54942
H          3.94877       -1.67363       -0.36527
H          0.71651       -2.45298       -0.89516
H         -2.55673       -3.51692        0.57779
H         -1.07958       -2.82365        0.55330
H         -4.67251        1.15884       -0.06234
H         -5.17909       -0.38577       -0.18743
H         -2.80178        2.53805       -0.59567
H         -0.86494        3.90517       -0.81945
H          1.27768        3.25840       -0.09044
