29
Coordinates from ORCA-job ./opt_b97-3c_parallel
N          4.91213        1.62795        0.27880
C          3.86654        1.17202        0.24351
C          2.53609        0.63957        0.19555
C          2.35295       -0.76264       -0.05954
C          0.94821       -0.98098       -0.06126
C          0.34591       -2.13082       -0.65259
N          0.49781       -2.64386       -1.61414
C          0.07695       -2.69490        0.63241
C         -1.31066       -2.72238        0.99063
C         -2.31815       -1.84121        0.43959
C         -2.21645       -0.51449        0.02306
N         -3.31840        0.21046       -0.20756
C         -2.93629        1.53457       -0.33229
N         -3.50182        2.46707       -0.49354
N         -1.57181        1.66406       -0.18266
C         -1.11891        0.42293        0.00823
C          0.30455        0.19415        0.12561
C          1.28397        1.24045        0.28259
N          1.22663        2.33753        0.41940
H          3.12708       -1.49081       -0.28233
H          0.46185       -3.66188       -1.56723
H          1.38048       -2.41150       -2.06806
H          0.72488       -3.43901        1.08876
H         -1.64317       -3.54734        1.61325
H         -3.32479       -2.22441        0.58326
H         -3.18913        3.42268       -0.66108
H         -4.45964        2.53316       -0.15130
H          2.09405        2.66808        0.84305
H          1.04319        2.95798       -0.36755
