30
Coordinates from ORCA-job ./opt_b97-3c_parallel
N         -3.15606       -0.02939        2.50526
C         -2.52357        0.39925        1.65531
C         -1.74042        0.87756        0.55770
C         -1.84686        1.76370       -0.46180
N         -3.01400        1.75918       -1.12297
C         -0.76919        2.43589       -0.84973
C          0.36111        2.54857       -0.07833
C          1.41463        1.59148        0.19304
C          2.66996        1.96035        0.54778
C          3.42302        0.86960        0.53505
C          2.75482       -0.23776        0.21935
N          3.35611       -1.43780        0.16542
C          1.45765        0.15908        0.03062
C          0.32515       -0.73859       -0.08425
N          0.41764       -2.02896       -0.10130
C         -0.51720       -2.82257       -0.50662
N         -0.26570       -3.89437       -0.44079
C         -1.20809       -1.70035       -0.16125
C         -0.98164       -0.30405        0.30153
H         -3.26045        2.55891       -1.70550
H         -3.86540        1.48030       -0.63638
H         -0.84285        3.07701       -1.72570
H          0.64485        3.56625        0.17521
H          3.01205        2.97162        0.75916
H          4.48831        0.88613        0.75882
H          3.12093       -2.10192       -0.56916
H          4.36186       -1.50322        0.32106
H          0.60046       -4.43082       -0.39995
H         -1.02405       -4.57509       -0.40394
H         -2.29625       -1.69394       -0.21530
