31
Coordinates from ORCA-job ./opt_b97-3c_parallel
N         -4.91245       -1.54970        0.03965
C         -3.80464       -1.28768       -0.05166
C         -2.40381       -0.97363       -0.12809
C         -1.56390       -2.00584       -0.42144
C         -0.35422       -1.36295       -0.37631
C          0.83461       -2.07427       -0.73986
N          1.02393       -3.11070       -1.07279
N          2.01586       -1.57305       -0.74880
C          2.85362       -1.22894        0.16599
N          3.67775       -1.93195        0.37385
C          2.94804        0.11473        0.63110
C          1.91317        1.07303        0.33001
C          2.25066        2.44681        0.48356
C          1.24122        3.34476        0.26975
C          0.24010        2.44019       -0.01737
C         -0.73973        3.45261       -0.30184
N         -1.58186        4.15725       -0.62008
C          0.57037        1.03928        0.03575
C         -0.45779       -0.00521       -0.10327
C         -1.78389        0.30436        0.08053
N         -2.48477        1.11344        0.35671
H         -1.69490       -2.98622        0.03245
H          0.58074       -2.62368       -1.84964
H          1.89308       -3.50276       -1.43056
H          3.13755       -2.79355        0.43074
H          3.98542       -1.71540        1.31975
H          3.86702        0.45027        1.10556
H          3.25913        2.74217        0.75691
H          1.12088        4.16233        0.98503
H         -2.05482        1.80405        0.96885
H         -3.44346        0.99026        0.67822
