26
Coordinates from ORCA-job ./opt_b97-3c_parallel
N         -0.34618        3.26962        0.48843
C         -0.01319        2.23279        0.31544
C          1.34060        1.80031        0.09686
C          1.79684        0.43110       -0.07714
C          3.11153        0.14813       -0.28906
C          3.25631       -1.16918       -0.29023
C          2.10515       -1.79675       -0.09354
C          1.13251       -0.85232        0.04239
C         -0.26099       -1.14899        0.29505
C         -0.65918       -2.51634        0.44639
N         -1.74627       -2.43649        0.59859
C         -2.06107       -1.38932        0.47067
C         -1.30585       -0.17177        0.34748
C         -1.80024        0.81359       -0.57176
N         -2.36613        1.10434       -1.47030
N         -1.07744        1.50336        0.25074
H          0.39941        3.37946        1.17245
H         -1.22393        3.40719        0.98547
H          2.10234        2.57454        0.06622
H          3.90707        0.87530       -0.43522
H          4.20709       -1.67601       -0.43652
H          1.97318       -2.87517       -0.05315
H         -0.34720       -3.57079        0.47789
H         -3.13313       -1.39099        0.21971
H         -2.98609        0.37604       -1.81746
H         -2.93141        1.93798       -1.32352
