26
Coordinates from ORCA-job ./opt_b97-3c_parallel
N          3.49271       -0.28245       -1.87797
C          2.38723       -0.55440       -1.77609
C          1.34803       -0.83706       -0.83329
C          1.47384       -2.07901       -0.13131
N          0.66908       -2.24420        0.60230
C         -0.14924       -1.23674        0.25750
C         -1.52497       -1.33962        0.51582
C         -2.56198       -0.51215        0.05702
N         -3.81151       -1.04981        0.20389
C         -2.54908        0.75657       -0.55195
C         -1.58217        1.76528       -0.64703
C         -0.29504        1.80070       -0.09327
C          0.43671        2.98632       -0.01831
C          1.62014        2.72290        0.66006
C          1.67727        1.38147        1.01952
C          0.50431        0.75595        0.58672
C          0.48938       -0.18729       -0.57883
H          2.23705       -2.84416       -0.21150
H         -1.83706       -2.24588        1.03332
H         -4.59675       -0.59998       -0.25367
H         -3.89809       -2.02962        0.45094
H         -3.51261        1.07392       -0.94778
H         -1.93070        2.68380       -1.11419
H          0.14108        3.95764       -0.40793
H          2.41047        3.44844        0.83576
H          2.55842        0.88722        1.42155
