25
Coordinates from ORCA-job ./opt_b97-3c_parallel
N          3.92675        0.44749       -0.01345
C          2.86875        0.87681       -0.04553
C          1.51442        1.33064       -0.09183
C          1.24920        2.72405       -0.09830
C         -0.06642        3.06628       -0.11945
C         -0.67363        1.83684       -0.14780
C         -2.08717        1.82929       -0.49876
C         -2.99450        0.78965       -0.59556
N         -3.16787       -0.41080       -0.02440
C         -2.20599       -0.73236        0.88758
C         -1.07667       -1.30753        0.25149
C         -0.78030       -2.69884        0.25619
N          0.49818       -2.77908       -0.16054
C          1.07000       -1.57926       -0.38732
N          2.00269       -2.11768       -0.64069
C          0.07013       -0.58211       -0.11862
C          0.25080        0.79381       -0.10808
H          2.05919        3.44774       -0.07723
H         -0.44404        3.86719        0.51371
H         -2.46414        2.80769       -0.78520
H         -4.03362        0.65979       -0.93518
H         -2.85607       -1.57718        1.16311
H         -1.38177       -3.56864        0.56169
H          2.40113       -2.78941       -1.29651
H          2.77296       -1.50107       -0.37347
