34
Coordinates from ORCA-job ./opt_b97-3c_parallel
N         -4.76534        1.16211        1.36511
C         -3.73127        1.07803        0.88656
C         -2.43689        0.91152        0.28811
C         -1.97076       -0.40842       -0.10878
C         -2.93597       -1.45837       -0.16207
C         -2.21406       -2.64964       -0.47376
N         -2.42634       -3.71897       -0.64862
N         -0.86323       -2.34740       -0.54035
C         -0.74482       -1.02280       -0.32450
C          0.63981       -0.53988       -0.19792
C          1.71679       -1.47679        0.05026
N          1.85639       -2.56318        0.23215
C          2.92948       -0.68064        0.10324
C          4.28430       -1.11776        0.33911
N          4.80671       -1.54970        1.25923
C          2.62423        0.64882       -0.12994
N          3.34873        1.48779       -0.17704
C          1.20207        0.70992       -0.30984
C          0.59060        1.93730       -0.72837
N          0.88087        2.96685       -1.00767
N         -0.68178        2.04312       -0.89214
C         -1.66658        2.07107       -0.05629
N         -1.91530        3.13553        0.11629
H         -4.01038       -1.38602       -0.02236
H         -1.77260       -4.48039       -0.82962
H         -3.35908       -4.11322       -0.77163
H          2.65779       -2.56957        0.86411
H          1.71071       -3.53164       -0.04516
H          4.31147        1.36876        0.13730
H          3.13317        2.47865       -0.07515
H          0.50715        3.70335       -1.60395
H          1.75491        2.66089       -1.43211
H         -1.30366        3.90642       -0.14829
H         -2.50614        3.47753        0.87280
