25
Coordinates from ORCA-job ./opt_b97-3c_parallel
N         -3.61510       -0.41209       -0.19435
C         -2.54499       -0.13994       -0.11374
N         -2.44512        1.25438       -0.08991
C         -1.13809        1.54228        0.07547
N         -1.17239        2.64974        0.06114
C         -0.33109        0.43802        0.15208
C          1.11560        0.53885        0.24359
N          1.70494        1.70053        0.40947
C          2.95232        1.51164        0.13431
C          3.25485        0.28518       -0.21155
C          2.08873       -0.38429       -0.13817
N          2.10182       -1.63765       -0.62141
C          1.10565       -2.45203       -0.15551
C          0.14736       -2.55543        0.79251
C         -1.00488       -2.07123        0.27087
C         -1.22300       -0.67126        0.04694
H         -3.78575       -1.41825       -0.23132
H         -4.54139        0.01532       -0.14346
H         -0.16114        2.76182        0.17725
H         -1.53188        3.59429       -0.08529
H          3.83469        2.16976        0.13242
H          4.23669       -0.10632       -0.47193
H          1.59209       -3.22533       -0.77106
H          0.13545       -3.40920        1.46709
H         -1.86448       -2.72872        0.18138
