30
Coordinates from ORCA-job ./opt_b97-3c_parallel
N          4.33426        1.74715        0.58864
C          3.57033        0.90660        0.47360
C          2.55933       -0.09327        0.31634
C          2.59360       -1.44204        0.03522
N          3.43496       -2.13322       -0.14398
C          1.36924       -2.06805        0.02355
C          0.52333       -1.00660        0.19417
C         -0.91943       -1.12689        0.26489
C         -1.50238       -2.42219        0.42945
N         -2.83534       -2.25980        0.35733
C         -3.21537       -0.99148        0.12403
N         -4.30278       -1.19948        0.06750
C         -2.01148       -0.20793        0.05022
C         -2.12360        1.15338       -0.45955
N         -2.82825        1.90694       -0.85009
N         -1.18172        2.17566       -0.57772
C          0.04399        2.09956        0.04151
N          0.50747        3.08836       -0.12859
N          0.67229        1.33654        0.86033
C          1.18008        0.22363        0.44871
H          4.32842       -1.71488       -0.40508
H          3.62225       -3.12763       -0.01353
H          1.14281       -2.85161       -0.70035
H         -1.29395       -3.49247        0.58605
H         -5.02286       -0.50036       -0.12336
H         -4.82327       -2.06150        0.24600
H         -2.86460        1.77542       -1.86164
H         -3.33681        2.77195       -0.66178
H          1.40487        3.39085        0.25529
H          0.04274        3.94640       -0.42838
