32
Coordinates from ORCA-job ./opt_b97-3c_parallel
N         -5.59413        0.64684       -0.85408
C         -4.50191        0.70759       -0.52279
C         -3.14598        0.76107       -0.07482
C         -2.66450        1.87163        0.67762
C         -1.35155        1.83839        1.05470
C         -0.94743        0.65719        0.48517
C          0.45794        0.41139        0.14104
C          1.37661        1.42819        0.09473
N          1.34285        2.53257        0.18631
C          2.61123        0.73480       -0.16639
C          3.88072        1.39374       -0.31513
N          4.87681        1.93886       -0.45289
C          2.56790       -0.63296       -0.28338
N          3.52826       -1.51663       -0.61321
C          1.22947       -0.79902       -0.02114
C          0.64305       -2.06330        0.34056
N          1.13137       -3.05347        0.45671
C         -0.66651       -2.31109        0.58501
C         -1.32565       -2.33587       -0.60448
C         -2.09396       -1.25165       -0.93651
C         -2.04632       -0.04153       -0.15158
H         -3.32977        2.69406        0.92272
H         -1.05804        2.09383        2.06993
H          2.02339        3.11706       -0.29674
H          0.42161        2.81874       -0.13998
H          3.39095       -2.50791       -0.42228
H          4.50764       -1.29286       -0.44552
H          0.98891       -3.99841        0.80813
H          1.68525       -2.55803        1.15284
H         -1.05015       -2.79067        1.48623
H         -1.42403       -3.26658       -1.15509
H         -2.90088       -1.39089       -1.65030
