27
Coordinates from ORCA-job ./opt_b97-3c_parallel
N          5.28090       -0.46974        0.34360
C          4.14928       -0.37635        0.21760
C          2.72751       -0.22658        0.08950
C          2.18204       -1.49682        0.06614
C          0.89489       -1.96098       -0.05767
C          0.77735       -3.38562       -0.10966
N         -0.27845       -3.04539       -0.17642
C         -1.28094       -2.57490       -0.20886
C         -0.36904       -1.47359       -0.11586
C         -0.92898       -0.14822       -0.06270
C         -2.35862       -0.06302       -0.03835
C         -3.66732       -0.64863       -0.02710
N         -4.66363       -0.73093        0.52712
C         -2.63035        1.34406        0.00272
N         -3.19609        2.29705        0.03974
N         -1.47849        2.02783       -0.01832
C         -0.41715        1.12371       -0.05262
C          0.90975        1.72224       -0.10667
C          0.98284        3.15527       -0.20411
N          0.99906        4.29390       -0.29478
C          2.22089        1.11586       -0.03543
H          2.89721       -2.31895        0.13943
H          1.33526       -4.33440       -0.09931
H         -2.08294       -3.32671       -0.28031
H         -4.11597        1.90126        0.24266
H         -3.31792        3.31010        0.04871
H          3.02817        1.84737       -0.04627
