31
Coordinates from ORCA-job ./opt_b97-3c_parallel
N         -4.33285        0.25782       -1.74170
C         -3.20901        0.23352       -1.52928
C         -2.14824       -0.13443       -0.63895
C         -1.64060       -1.38597       -0.91194
C         -0.63710       -1.98048       -0.06558
C         -0.39717       -3.31504        0.00845
C          0.75152       -3.47494        0.64687
C          1.29811       -2.31309        0.97768
C          0.49111       -1.30502        0.53669
C          0.98926       -0.01552        0.07106
C          2.32018        0.19647       -0.15760
C          3.58285       -0.48149       -0.17616
N          4.59520       -1.01133       -0.15009
C          2.33327        1.57184       -0.55648
N          3.08630        2.30393       -0.90913
C          1.15403        2.27175       -0.55738
C          0.32821        1.25243       -0.15059
C         -1.04961        1.50737        0.20945
C         -1.64671        2.81126        0.16371
N         -2.11797        3.85230        0.16451
C         -1.84282        0.40374        0.66399
N         -2.43834        0.21587        1.57672
H         -2.11552       -2.03475       -1.64377
H         -1.04719       -4.10899       -0.35147
H          1.18815       -4.44206        0.88410
H          2.22279       -2.19340        1.53731
H          3.30417        3.29090       -1.03334
H          3.97294        1.80216       -0.92549
H          1.07287        3.25746       -0.09443
H         -2.82120        1.14196        1.76024
H         -3.21732       -0.36660        1.27250
