25
Coordinates from ORCA-job ./opt_b97-3c_parallel
N         -0.43701       -4.49900        0.68443
C         -0.25415       -3.39496        0.45623
C          0.02435       -2.02187        0.17702
C         -0.93657       -1.40585       -0.55163
C         -1.88569       -0.66233        0.06663
C         -3.10013       -1.41414        0.19500
N         -3.98851       -1.70895       -0.46130
C         -1.66566        0.68593        0.20436
N         -2.69958        1.55782        0.43904
C         -2.17658        2.83809        0.34207
N         -0.81762        2.77812        0.06273
C         -0.48084        1.44827       -0.01102
C          0.91237        1.07136       -0.17626
C          1.87626        2.11345       -0.35477
N          3.09395        1.54579       -0.29741
C          3.05496        0.22196       -0.07607
N          4.13031       -0.03008       -0.04033
C          1.67252       -0.13694        0.00435
C          1.34010       -1.49860        0.35193
H         -1.06362       -1.66799       -1.60097
H         -2.82130        3.72092        0.47469
H          1.85868        3.20747       -0.47844
H          5.00582        0.49391       -0.03371
H          4.38873       -1.00096       -0.21631
H          2.13165       -2.17695        0.65802
