31
Coordinates from ORCA-job ./opt_b97-3c_parallel
N         -5.29719       -1.22542       -1.05783
C         -4.19463       -1.08560       -0.79103
C         -2.80321       -0.91528       -0.49207
C         -2.29683        0.33970       -0.33412
C         -0.97229        0.12789       -0.04261
C         -0.08602        1.20152        0.36094
C         -0.69333        2.44807        0.69083
C         -1.73096        3.38995        0.97114
N         -2.84574        3.39792        1.22371
C          0.40398        3.36611        0.73925
N          1.55434        2.75825        0.40565
C          1.26279        1.41854        0.20611
C          2.24564        0.59381       -0.46386
C          3.31794        1.23904       -1.18544
N          4.16165        1.72472       -1.78453
C          2.22428       -0.78987       -0.33717
N          3.00754       -1.43325       -0.80474
C          1.61074       -1.32756        0.86014
C          2.21427       -2.35792        1.67600
N          2.84606       -3.23408        2.04874
C          0.40022       -1.94726        0.60455
C         -0.70559       -1.22863        0.01990
C         -1.88548       -1.98509       -0.26204
N         -2.13299       -3.06328       -0.27855
H         -2.60310        1.14705       -0.99638
H          0.79827        4.38359        0.88233
H          3.34857       -2.27623       -0.34421
H          3.83500       -0.91712       -1.10065
H          0.15915       -2.97055        0.90238
H         -3.10336       -3.30470       -0.47502
H         -1.58519       -3.91153       -0.40527
