31
Coordinates from ORCA-job ./opt_b97-3c_parallel
N         -4.64346        0.86349       -0.97678
C         -3.55357        0.65287       -0.70612
C         -2.20179        0.35057       -0.35017
C         -1.48596        1.43385        0.06193
N         -1.48951        1.97537        1.29182
C         -0.60911        2.16243       -0.68726
C          0.82034        1.92473       -0.74940
N          1.37548        2.72970       -1.26443
C          1.39023        0.75694       -0.10197
C          2.81404        0.64504        0.02081
N          3.88084        0.91150       -0.06313
N          3.00452       -0.49275        0.68109
C          1.81127       -1.03455        0.92751
N          2.22201       -1.92259        1.44595
C          0.63114       -0.36723        0.41894
C         -0.33420       -1.31591       -0.09014
N         -0.18736       -2.67863       -0.29605
C         -1.36936       -3.11571       -0.74229
C         -2.25564       -2.12504       -0.82830
C         -1.66495       -0.98252       -0.43447
H         -1.21401        2.94931        1.41258
H         -2.29018        1.81913        1.90493
H         -0.98923        3.04449       -1.20099
H          1.70213        2.81384       -2.22668
H          1.04417        3.65504       -0.99242
H          3.55663        1.80170       -0.44027
H          4.82480        1.07149        0.28656
H          2.91803       -2.54850        1.84919
H          1.52102       -2.52188        1.00401
H         -1.84299       -4.05714       -1.06136
H         -3.28731       -2.22681       -1.15985
