29
Coordinates from ORCA-job ./opt_b97-3c_parallel
N          2.31050       -1.10601       -2.52424
C          1.67816       -1.37999       -1.61273
C          1.51874       -1.04295       -0.56485
C          0.82021       -1.86993        0.27483
N          1.17931       -2.69479        0.92417
N         -0.38864       -2.25259        0.74188
C         -1.57589       -1.70286        0.37697
N         -1.99456       -2.64685        0.79022
C         -1.61606       -0.55849       -0.52014
C         -2.76226       -0.28941       -1.21366
N         -2.96859        0.97805       -0.94159
C         -2.06689        1.74677       -0.24315
N         -2.63001        2.70489       -0.26866
C         -1.14951        0.72164       -0.27076
C          0.13372        1.07201       -0.08414
N          1.03606        1.99220        0.16828
C          2.38446        2.19515        0.35042
N          2.95084        3.11412        0.57989
N          2.44126        0.83466        0.10559
C          1.21240        0.22957       -0.14892
H          0.97379       -3.68652        1.06186
H          2.19705       -2.65155        0.85102
H         -2.52024       -2.67662        1.66964
H         -2.00649       -3.62127        0.47150
H         -3.67589       -0.57841       -1.75959
H         -2.29818        3.65318       -0.07187
H         -3.61370        2.85156       -0.51838
H          3.94854        2.91915        0.68422
H          2.87246        4.12825        0.68078
