21
Coordinates from ORCA-job ./opt_b97-3c_parallel
C         -2.79478        1.64664        0.12916
C         -2.90836        0.32646        0.09004
C         -1.67745       -0.26936        0.01306
C         -1.56711       -1.66267       -0.37195
N         -0.45465       -2.40976       -0.44820
C          0.68662       -2.07420        0.14313
N          1.26226       -1.25806        0.95225
C          1.58532       -0.17463        0.32430
C          2.92527        0.06409        0.28568
C          2.66992        1.36616       -0.01826
N          1.58258        1.44833       -0.16945
C          0.66029        0.84991       -0.07020
C         -0.71488        0.73569        0.03881
C         -1.47518        1.93680        0.08625
H         -3.61001        2.36338        0.19006
H         -3.85374       -0.21050        0.11267
H         -2.16474       -2.54453       -0.64590
H          1.26275       -2.95369       -0.18151
H          3.58240       -0.53323       -0.34247
H          3.33929        2.21496       -0.22322
H         -1.05091        2.93611        0.08054
