28
Coordinates from ORCA-job ./opt_b97-3c_parallel
N         -5.10382        1.94474        0.36313
C         -4.07404        1.44951        0.34409
C         -2.79717        0.81394        0.27672
C         -2.62857       -0.55463        0.61093
C         -1.27318       -0.77563        0.26745
C         -0.72672       -2.10103        0.32494
N         -1.17550       -3.02303        0.73946
C          0.05013       -2.56318       -0.69794
C          1.32140       -2.21820       -0.83212
C          1.97596       -1.43304        0.06597
C          1.79086       -0.00989        0.11627
C          2.81349        0.86010        0.40142
C          4.20451        0.76838        0.72262
N          5.14094        0.49112        0.12678
C          2.31023        2.11844        0.21596
C          1.04001        2.07738       -0.17131
C          0.63759        0.77563       -0.21749
C         -0.70888        0.41321       -0.14890
C         -1.66191        1.40839       -0.20461
H         -3.37641       -1.26853        0.94241
H         -1.82273       -2.72576        1.46668
H         -0.97531       -4.00745        0.90509
H         -0.39502       -3.17730       -1.48341
H          1.87310       -2.58788       -1.69303
H          2.93481       -1.78866        0.42912
H          2.87929        3.03726        0.34460
H          0.43402        2.95265       -0.39170
H         -1.71602        2.07742       -1.06082
