32
Coordinates from ORCA-job ./opt_b97-3c_parallel
N         -5.18724        1.03157        0.59596
C         -4.07053        0.81323        0.49563
C         -2.67841        0.53226        0.32269
C         -2.08885        1.55950       -0.39819
C         -0.67358        1.77437       -0.44888
C         -0.27522        2.86472       -1.29128
N          0.36599        3.78493       -1.06666
C          0.08016        1.20188        0.62732
N          1.31518        1.53822        0.85568
C          2.61480        1.59838        0.82296
N          3.02256        2.54309        1.23380
C          2.26359        0.37835        0.29423
C          3.59062       -0.14112        0.08780
N          4.68083       -0.36976        0.34584
C          0.90641        0.20811        0.20156
C          0.30875       -1.01681       -0.27879
C          1.00209       -2.12779       -0.70518
N          1.99922       -2.52322       -0.96632
C          0.19728       -3.24699       -0.78370
C         -0.98342       -2.83095       -0.22172
N         -1.68656       -3.66218       -0.03929
C         -1.03338       -1.42325       -0.02504
C         -2.18456       -0.80345        0.60528
H         -2.71397        2.30457       -0.89018
H          3.95116        2.13578        1.35540
H          3.15897        3.55191        1.18294
H          2.36953       -3.42379       -0.66237
H          2.05407       -2.51987       -1.98443
H          0.18220       -3.88217       -1.67467
H         -2.44690       -3.58883        0.63476
H         -1.48966       -4.65692       -0.14142
H         -2.94455       -1.48705        0.97515
