31
Coordinates from ORCA-job ./opt_b97-3c_parallel
N          4.38491        2.17228        0.95021
C          3.28824        1.97694        0.69964
C          1.90824        1.77510        0.38490
C          0.87391        2.58001        0.98448
N         -0.43023        2.60187        0.62039
C         -1.29790        1.69077        0.11459
N         -2.60951        2.06511       -0.12363
C         -3.37619        0.92240       -0.30338
N         -4.41997        1.21115       -0.53682
C         -2.55123       -0.23703       -0.11793
C         -3.00282       -1.58078       -0.29037
N         -3.39831       -2.63951       -0.45058
C         -1.22959        0.25196        0.14162
C         -0.06329       -0.58365        0.31345
C         -0.06268       -1.96524        0.67440
C          1.30250       -2.41135        0.57743
C          1.63465       -3.77040        0.87004
N          1.86676       -4.86502        1.10066
C          2.08751       -1.36283        0.12555
N          3.16079       -1.37166       -0.13369
C          1.21051       -0.23538        0.00456
C          1.54363        0.95411       -0.73157
N          1.32017        1.09159       -1.80425
H          1.34098        3.35977        1.60662
H         -5.02533        0.44471       -0.84000
H         -5.02626        2.03309       -0.50583
H         -0.90460       -2.57756        0.97733
H          4.05589       -0.93078        0.07819
H          3.36733       -2.35447       -0.31381
H          1.77969        1.79083       -2.38916
H          1.82641        0.22020       -1.97249
