32
Coordinates from ORCA-job ./opt_b97-3c_parallel
N          2.24809       -2.99022       -1.94767
C          2.32126       -2.01778       -1.34478
C          2.27214       -1.24988       -0.54459
C          1.75527       -1.75363        0.61405
N          0.55861       -2.12714        1.08298
C         -0.58349       -1.75994        0.47140
N         -1.71678       -2.55085        0.51770
C         -2.75878       -1.84185       -0.05769
N         -3.68511       -2.44911       -0.11230
C         -2.30738       -0.52349       -0.40019
C         -3.12627        0.43381       -1.07576
N         -3.81203        1.16284       -1.62481
C         -0.91339       -0.45827       -0.04975
C         -0.11605        0.76480       -0.01883
C         -0.69084        2.06896        0.18222
N         -1.65608        2.57762        0.36503
C          0.22652        3.09873        0.29670
C          1.39232        2.39136        0.13009
N          2.22123        3.12304        0.13651
C          1.23282        0.98208       -0.02483
C          2.34168        0.08885       -0.27591
N          3.40779        0.39520       -0.32943
H          2.47496       -2.18239        1.32948
H         -4.00400       -3.41304       -0.01045
H         -4.49891       -1.93308       -0.45670
H         -2.46940        2.73020       -0.23022
H         -1.63723        3.36170        1.01753
H          0.14856        3.87139        1.07117
H          3.20275        2.87179        0.24915
H          2.19217        4.14239        0.10578
H          3.24591        1.31722       -0.73521
H          4.30121        0.07457       -0.70373
