28
Coordinates from ORCA-job ./opt_b97-3c_parallel
N         -4.13587       -2.01018        1.70914
C         -3.23895       -1.47014        1.25177
C         -2.11297       -0.82081        0.64585
C         -1.24815       -1.85848        0.34530
C         -0.07018       -1.73609       -0.36068
C          0.53723       -2.87748       -0.80165
N          1.77287       -2.46892       -1.07511
C          2.03957       -1.13531       -0.81998
N          3.06247       -1.38879       -1.15840
C          0.80471       -0.60901       -0.33888
C          0.65514        0.69655        0.28724
C          1.77578        1.49997        0.69912
C          3.14660        1.10766        0.79315
N          4.23001        0.74724        0.83415
C          1.30731        2.72720        1.02362
C          0.00175        2.74531        0.81275
C         -0.44699        1.52917        0.37427
C         -1.65281        1.31579       -0.38390
C         -2.46107        2.37940       -0.90586
N         -2.12516        2.88784       -1.87347
C         -2.33998        0.12036       -0.41281
H         -1.51474       -2.88097        0.62282
H          0.27531       -3.93253       -0.97808
H          3.59050       -0.62468       -0.73308
H          3.74792       -1.93672       -1.67923
H          1.90358        3.56378        1.38265
H         -0.63315        3.61150        0.98974
H         -3.34647        0.10924       -0.83002
