32
Coordinates from ORCA-job ./opt_b97-3c_parallel
N         -4.77354        0.07404        0.70973
C         -3.74264       -0.41682        0.68014
C         -2.42823       -0.97560        0.61295
C         -2.21770       -2.31120        1.04232
C         -0.94519       -2.77211        0.91113
C         -0.29696       -1.65987        0.42475
C          0.92103       -1.76273       -0.35315
C          1.22092       -2.99370       -1.03812
N          1.43448       -3.95541       -1.61657
C          1.81485       -0.70083       -0.37374
N          2.77207       -0.72708       -0.94307
C          1.78950        0.16301        0.79115
C          2.91795        0.14212        1.69741
N          3.95295        0.49022        2.03420
C          1.31474        1.43601        0.50873
N          1.62844        2.44436        0.86583
C          0.14200        1.55158       -0.34322
C         -0.30129        2.70604       -0.94185
N         -0.17952        3.76440       -1.23893
N         -1.55984        2.64240       -1.39473
C         -2.00744        1.37265       -1.04129
C         -0.95516        0.63274       -0.39811
C         -1.16656       -0.59255        0.23188
H         -3.03988       -2.91328        1.41882
H         -0.75573       -3.77965        0.54702
H          2.97253       -1.62122       -1.39211
H          3.66452       -0.39282       -0.57887
H          1.20605        2.72924        1.75073
H          2.62063        2.30512        1.06859
H          0.73711        3.76837       -0.78774
H         -0.25253        4.64274       -1.75173
H         -3.04812        1.45189       -1.39273
