26
Coordinates from ORCA-job ./opt_b97-3c_parallel
N          3.18944       -0.39369        2.26619
C          2.57350        0.23444        1.53894
C          1.76788        0.94140        0.59628
C          2.27047        1.96376       -0.27121
N          1.29804        1.93475       -0.79300
C          0.24449        1.73525       -0.54622
C         -1.08012        2.25652       -0.75490
C         -2.23258        1.80727       -0.12540
N         -2.67398        0.82692        0.70690
C         -2.23813       -0.50443        0.77645
N         -3.13202       -0.53250        1.43294
C         -1.30835       -1.15329       -0.12287
C         -1.30823       -2.48571       -0.42915
N         -0.05787       -2.67887       -0.84887
C          0.78319       -1.57722       -0.84655
N          1.74448       -2.05802       -1.11015
C         -0.07512       -0.53251       -0.40896
C          0.39903        0.60954        0.31703
H          3.24604        2.45945       -0.39525
H         -1.12273        3.15765       -1.36359
H         -2.87061        2.68248       -0.32984
H         -2.96519       -0.62618        2.43700
H         -4.14931       -0.48270        1.34070
H         -1.77883       -3.47742       -0.52039
H          1.97789       -2.61903       -1.93221
H          2.62989       -1.93806       -0.61291
