32
Coordinates from ORCA-job ./opt_b97-3c_parallel
N          5.02486        1.59943        1.14046
C          3.98849        1.28479        0.77902
C          2.66932        0.93325        0.34242
C          1.88140        1.92968       -0.17119
C          0.71668        1.23034       -0.37378
C         -0.31427        1.59096       -1.30702
N         -0.23461        2.51525       -1.91691
N         -1.35905        2.26378       -0.69381
C         -2.21403        1.53450        0.06555
N         -2.66435        2.53790        0.24051
C         -2.43979        0.16720        0.22309
C         -3.75307       -0.03498        0.76097
N         -4.79668       -0.14622        1.21027
C         -1.56985       -0.93838       -0.14081
C         -2.06158       -2.28360       -0.16853
C         -1.12148       -3.26393       -0.36643
C          0.00766       -2.47712       -0.36458
C          1.03962       -3.44695       -0.59249
N          1.64790       -3.20379       -1.53153
C         -0.21468       -1.06879       -0.23383
C          0.83982       -0.09321       -0.06342
C          2.08419       -0.37489        0.42564
N          2.63356       -1.23055        0.85262
H          1.87095        2.91859        0.28413
H          0.73329        2.32092       -2.18313
H         -0.61780        3.03327       -2.71046
H         -3.05181        3.46061        0.03451
H         -3.21473        2.20195        1.03463
H         -3.11505       -2.50687       -0.02961
H         -1.18528       -4.19795        0.19358
H          3.47337       -1.06718        1.40818
H          2.60566       -2.23279        0.66771
