28
Coordinates from ORCA-job ./opt_b97-3c_parallel
N         -1.72717        4.33547       -0.93686
C         -1.33929        3.29812       -0.65399
C         -0.84446        1.98540       -0.31380
C         -1.79673        1.15648        0.30762
C         -1.82766       -0.21829        0.57692
C         -2.96852       -0.68238        1.33292
N         -3.87565       -1.03237        1.93412
C         -0.97237       -1.16584       -0.01252
N         -1.26514       -2.47201       -0.13778
C         -0.65292       -2.44755       -1.07505
N          0.19256       -2.01849       -1.67396
C          0.09578       -0.88659       -0.96351
C          1.06693       -0.63668        0.17021
C          2.15699       -1.43249        0.53635
N          2.17980       -2.79747        0.48923
C          3.05167       -0.30332        0.67021
C          2.75388        0.99416        0.09812
N          3.39575        2.19368       -0.04011
C          1.38831        0.77262       -0.10931
C          0.54427        1.83947       -0.48252
H         -2.71382        1.67434        0.59334
H         -0.81688       -3.51480       -1.14216
H          3.08320       -3.25663        0.44755
H          1.39906       -3.26682        0.04269
H          3.98173       -0.43547        1.21379
H          2.84097        3.02666       -0.20211
H          4.30122        2.30897        0.40244
H          1.04752        2.74231       -0.82436
