26
Coordinates from ORCA-job ./opt_b97-3c_parallel
N         -4.66385       -0.97013        0.25443
C         -3.69438       -0.36880        0.18722
C         -2.49917        0.40784        0.07174
C         -2.40287        1.75727       -0.07885
C         -1.12710        2.11185       -0.13546
C         -0.34714        0.99765       -0.03868
C          1.10687        0.97899       -0.02460
C          1.87177        2.18476       -0.01471
C          3.19740        1.88343        0.03375
C          3.35110        0.56458        0.04873
C          2.12895       -0.04301       -0.00656
C          1.93275       -1.46952       -0.13655
N          2.73328       -2.23264       -0.16347
C          0.75055       -2.12016       -0.33652
C         -0.08087       -2.32744        0.72344
N         -0.87165       -1.39259        0.31374
C         -1.18344       -0.15439        0.11916
H         -3.24650        2.44232       -0.13212
H         -0.77369        3.13317       -0.24900
H          1.44444        3.18140       -0.00806
H          4.00479        2.61077        0.06537
H          4.30865        0.05050        0.09070
H          2.81750       -3.21485       -0.41728
H          3.14745       -1.69206       -0.92030
H          0.56378       -2.63829       -1.27978
H         -0.60616       -2.80251        1.56509
