30
Coordinates from ORCA-job ./opt_b97-3c_parallel
N         -5.69927       -0.47567       -0.00428
C         -4.56541       -0.58745        0.08290
C         -3.14487       -0.75992        0.16103
C         -2.57494       -1.99555        0.58666
N         -1.66104       -1.43394        0.29274
C         -0.86803       -0.67176        0.12056
C          0.53884       -0.31745       -0.09377
C          1.48100       -1.31862       -0.18934
N          1.30693       -2.41068       -0.26711
C          2.78654       -0.69814       -0.15347
C          4.00407       -1.45650       -0.24973
N          4.96603       -2.06551       -0.35785
C          2.64857        0.66539        0.03285
N          3.50446        1.35993        0.14197
C          1.24075        0.94191        0.04632
C          0.73654        2.25359        0.41423
N          1.17519        3.16132        0.86807
C         -0.53974        2.60633        0.04666
C         -1.05657        1.83806       -1.03271
N         -2.25115        1.28016       -0.71297
C         -2.10180        0.06102       -0.14844
H         -3.10509       -2.90419        0.90884
H          0.45444       -2.67812        0.22175
H          2.01197       -3.11182       -0.04714
H          4.37560        1.25817       -0.37629
H          3.10109        2.25598       -0.12880
H          1.75594        2.54451        1.43460
H          1.04088        4.01497        1.40693
H         -1.09526        3.47961        0.39130
H         -2.00435        2.35214       -1.25608
