27
Coordinates from ORCA-job ./opt_b97-3c_parallel
N          4.57492        1.40736        1.30575
C          3.55376        1.11002        0.88671
C          2.27612        0.74745        0.31969
C          1.80489        1.65643       -0.69436
C          0.49175        1.88500       -1.02363
C         -0.47792        1.71166        0.01424
C         -1.43095        2.64567        0.31835
C         -2.60931        2.08902        0.55360
C         -2.49235        0.75231        0.38317
C         -3.55193       -0.19840        0.53075
N         -4.40895       -0.94046        0.67650
C         -1.12037        0.49831        0.04552
C         -0.64231       -0.76871       -0.45095
C         -1.44654       -1.81152       -0.80955
N         -0.70410       -2.90321       -0.73793
C          0.58416       -2.61439       -0.33555
C          0.68734       -1.19623       -0.15665
C          1.77967       -0.55925        0.44473
N          2.40984       -1.30803        0.97785
H          2.53738        2.36207       -1.07715
H          0.33640        2.73302       -1.68362
H         -1.24171        3.71532        0.36974
H         -3.52290        2.61962        0.81226
H         -2.34348       -2.36290       -1.13001
H          1.02530       -3.62059       -0.28147
H          3.42642       -1.24743        1.01193
H          2.15224       -2.19194        1.41232
