27
Coordinates from ORCA-job ./opt_b97-3c_parallel
N         -4.77587        0.09028        1.33209
C         -3.69337       -0.01841        0.98239
C         -2.35057       -0.18562        0.51546
C         -1.69538       -1.45107        0.62955
C         -0.38582       -1.69972        0.07237
C         -0.01413       -3.06509       -0.06389
C          1.25136       -3.11191       -0.53313
C          1.68153       -1.86603       -0.67259
C          0.73566       -0.95025       -0.27931
C          1.02842        0.44133        0.02733
C          2.38998        0.85886        0.02532
C          3.81242        0.82728       -0.10979
N          4.79325        0.28398       -0.33705
C          2.33434        2.20828        0.51792
N          1.06985        2.59324        0.77534
C          0.28453        1.50732        0.45523
C         -1.13165        1.67613        0.41270
C         -1.91772        0.82016       -0.28244
N         -2.34382        1.43043       -1.40107
H         -2.26682       -2.28754        1.02197
H         -0.65688       -3.90637        0.17662
H          1.81132       -4.01330       -0.77149
H          2.66806       -1.61626       -1.05421
H          2.76486        3.17477        0.82152
H         -1.52928        2.62167        0.77207
H         -3.29251        1.26341       -1.73248
H         -2.14301        2.41898       -1.54257
