24
Coordinates from ORCA-job ./opt_b97-3c_parallel
N          5.03157       -0.25126       -0.32777
C          3.91754       -0.00645       -0.40245
C          2.51645        0.26897       -0.46748
C          2.26584        1.52913       -0.01136
N          1.10650        2.07408        0.28426
C          0.40342        0.89578        0.14527
C         -1.04488        0.99984        0.09419
C         -1.72948        2.24439        0.21466
N         -2.57634        1.52720        0.03711
C         -3.30320        0.69198       -0.15245
C         -2.04471        0.02489       -0.13343
C         -1.92908       -1.40062       -0.30319
N         -2.60800       -2.24960       -0.49377
N         -0.82405       -2.06109       -0.18041
C         -0.05585       -1.84898        0.84124
C          1.11204       -1.41376        0.29549
C          1.28731       -0.13400       -0.04202
H          2.83878        2.46445        0.08214
H         -1.47311        3.30269        0.37196
H         -4.31309        0.27659       -0.28714
H         -2.52053       -3.14895       -0.96222
H         -2.94032       -1.58410       -1.18829
H         -0.02840       -2.88147        1.22037
H          1.92270       -2.12775        0.16038
