30
Coordinates from ORCA-job ./opt_b97-3c_parallel
N          2.70493        2.94999        1.23581
C          1.90777        2.27416        0.77692
C          0.91910        1.39704        0.23174
C         -0.10504        2.23974       -0.16939
N         -1.24808        2.21440       -0.89194
C         -2.11264        1.13256       -1.01892
N         -2.72823        1.85311       -1.58910
C         -2.13119        0.02064       -0.10461
C         -3.37353       -0.54158        0.31948
N         -4.41412       -0.21074        0.15316
C         -3.05238       -1.68440        0.98279
C         -1.73503       -1.85538        0.95384
C         -1.12633       -0.82448        0.29258
C          0.10610       -0.85792       -0.44018
N          1.05275       -1.74296       -0.32216
C          2.34067       -1.93769       -0.23454
N          2.68779       -2.98263       -0.35540
C          2.35735       -0.57348       -0.01877
C          3.74058       -0.25119        0.20910
N          4.19987        0.21176       -0.73119
C          1.10863       -0.00338       -0.09012
H         -0.19745        3.33855       -0.14241
H         -3.57062        1.27823       -1.51450
H         -2.99308        2.64335       -2.18037
H         -4.96223       -1.03999        0.38534
H         -4.97855        0.58241        0.45953
H         -3.76122       -2.36499        1.45441
H         -1.21865       -2.69867        1.40836
H          2.62843       -3.99086       -0.20142
H          3.66206       -2.80727       -0.61106
