29
Coordinates from ORCA-job ./opt_b97-3c_parallel
N         -3.93055        3.11544       -0.25475
C         -3.15919        2.27363       -0.22649
C         -2.15664        1.24774       -0.18009
C         -0.85361        1.62956       -0.08102
C         -0.20305        0.41884       -0.07136
C          1.24412        0.40248       -0.01114
N          1.95257        1.59379       -0.07378
C          3.32162        1.37753       -0.03438
N          3.90597        2.31088       -0.11440
C          3.37870        0.02204        0.09040
C          2.18836       -0.56398        0.09865
N          2.32919       -1.64300        0.25600
C          1.48149       -2.30992        0.07507
C          0.21325       -2.89861       -0.15974
C         -0.93231       -2.11151       -0.23813
N         -1.70667       -2.89151       -0.37491
C         -1.09709       -0.65152       -0.15736
C         -2.38295       -0.16298       -0.22495
N         -3.42514       -0.53048       -0.30444
H         -0.57247        2.42312        0.60883
H          3.62479        3.24313       -0.41780
H          4.92266        2.33509       -0.03559
H          4.33418       -0.50001        0.19428
H          2.13131       -3.19948        0.10257
H          0.22583       -3.99099       -0.24329
H         -1.92550       -3.88693       -0.36472
H         -2.38803       -2.45347       -0.99389
H         -3.47703       -1.39787        0.22755
H         -4.32291       -0.06117       -0.19304
