30
Coordinates from ORCA-job ./opt_b97-3c_parallel
N         -3.21084        2.81364        0.00764
C         -2.33608        2.07875        0.04259
C         -1.21479        1.18854        0.11801
C         -0.12829        1.79352        0.65390
C          0.64079        2.15125       -0.40584
C          1.77284        1.40113       -0.65781
N          2.45341        2.04785       -1.24287
C          2.02031        0.12971       -0.00001
C          3.36551       -0.34101        0.11941
N          4.40769       -0.02737       -0.07276
C          3.32533       -1.59826        0.62884
C          2.05346       -1.93790        0.78855
C          1.20969       -0.92938        0.40068
C         -0.18838       -1.18289        0.07933
C         -0.73302       -2.42907       -0.04418
C         -2.01034       -2.33353       -0.39549
C         -2.38037       -1.02515       -0.46435
C         -3.72189       -0.58272       -0.68950
N         -4.80503       -0.26698       -0.86937
C         -1.23166       -0.22381       -0.15090
H         -0.19414        2.41938        1.54195
H          0.45721        3.12085       -0.87277
H          2.91730        1.22839       -1.63311
H          2.65549        2.82466       -1.86954
H          5.12399       -0.09016        0.64776
H          4.00767        0.90765       -0.01006
H          4.17633       -2.22916        0.88718
H          1.73277       -2.88767        1.20895
H         -0.19868       -3.36852        0.07116
H         -2.66922       -3.17832       -0.58312
