30
Coordinates from ORCA-job ./opt_b97-3c_parallel
N          4.57932        1.79630        0.51173
C          3.72926        1.05091        0.33931
C          2.64711        0.14769        0.09821
C          2.61367       -1.15361       -0.35605
N          3.40376       -1.85875       -0.67195
C          1.36960       -1.73958       -0.36684
C          0.58224       -0.67843       -0.01605
C         -0.84614       -0.74746        0.19250
C         -1.49477       -2.00767        0.36536
N         -1.54233       -3.10213        0.48552
N         -2.81691       -1.75611        0.39093
C         -3.12567       -0.45837        0.21231
N         -4.22700       -0.37758        0.17219
C         -1.88455        0.24047        0.07703
C         -1.91377        1.59279       -0.45122
N         -2.63047        2.34251       -0.82542
N         -0.87751        2.43761       -0.57514
C          0.28911        2.28241        0.05012
N          0.83960        1.54464        0.94585
C          1.29013        0.49687        0.34203
H          4.25187       -1.29309       -0.69471
H          3.64438       -2.75150       -1.10009
H          1.06545       -2.40437       -1.17552
H         -1.95623       -3.96361        0.83965
H         -0.53288       -3.20893        0.57874
H         -5.14663       -0.79648        0.30860
H         -4.38678        0.61857        0.01592
H         -2.39086        2.11510       -1.79034
H         -2.62714        3.36159       -0.76681
H          0.99138        3.11079       -0.13543
