30
Coordinates from ORCA-job ./opt_b97-3c_parallel
N          5.08570        0.15353       -0.53808
C          3.99606        0.42851       -0.33331
C          2.62396        0.71826       -0.06856
C          2.17927        2.01837        0.30533
C          0.83306        2.17961        0.46216
C          0.40880        0.90020        0.20512
C         -1.00336        0.60759       -0.03129
C         -1.92209        1.58614       -0.33955
N         -1.97425        2.66883       -0.55272
C         -3.14712        0.97607       -0.45306
C         -3.08377       -0.32742       -0.19830
N         -4.14209       -1.15158       -0.22316
C         -1.78725       -0.58646        0.10609
C         -1.29345       -1.77572        0.74376
C         -0.03699       -1.97354        1.21624
C          0.55311       -2.15059        0.00113
N          0.90129       -2.89438       -0.74174
N          1.39871       -1.26932       -0.63186
C          1.48323       -0.02703       -0.10454
H          2.89168        2.83218        0.40906
H          0.43294        2.74591        1.29952
H         -2.82738        3.18106       -0.77474
H         -1.20105        3.24717       -0.87798
H         -4.07472        1.48692       -0.71687
H         -4.17497       -1.96363        0.38969
H         -5.08399       -0.76238       -0.25902
H         -2.01680       -2.57136        0.90108
H          0.15071       -2.65702        2.04223
H          0.21138       -3.64426       -0.71025
H          1.55573       -3.14721       -1.48266
