25
Coordinates from ORCA-job ./opt_b97-3c_parallel
N          3.92414       -0.85498       -0.37739
C          2.79778       -0.64990       -0.38270
C          1.73745       -0.40680       -0.12935
C          1.11083       -1.59664        0.16659
N          1.04000       -2.42522        0.90545
N         -0.03380       -1.90136       -0.37222
C         -1.29770       -1.60383       -0.44444
N         -1.65405       -2.51598       -0.95074
C         -1.82390       -0.39517        0.12625
C         -3.23830       -0.18260        0.15405
N         -3.26923        0.78707        0.67350
C         -2.26290        1.09895        0.99219
C         -0.94945        0.58634        0.71276
C          0.09342        1.44337        0.21040
N          0.06624        2.76233        0.02835
C          1.24943        3.12008       -0.46437
N          2.08843        2.03933       -0.62216
C          1.37667        0.92384       -0.19107
H          0.81839       -3.41200        0.78592
H          2.04511       -2.36505        1.05700
H         -2.42074       -2.01976       -1.39929
H         -1.36123       -3.25180       -1.59029
H         -4.07941       -0.79815       -0.19979
H         -2.46303        2.17717        1.09607
H          1.70154        4.07563       -0.77057
