30
Coordinates from ORCA-job ./opt_b97-3c_parallel
N         -5.38427        2.15441        0.46057
C         -4.38464        1.63419        0.27400
C         -3.15275        0.94674        0.06979
C         -1.89914        1.54693        0.34636
C         -0.97926        0.50099        0.07140
C          0.44248        0.83437        0.07053
C          0.90330        2.12283        0.01230
C          2.26051        1.95667       -0.15185
N          2.83425        2.89118       -0.27956
C          2.70285        0.65438       -0.07220
C          4.00257        0.05514       -0.09057
N          5.01974       -0.46397       -0.09157
C          1.51693       -0.11232        0.07799
N          1.52636       -1.47467        0.36988
C          0.31888       -1.99032        0.77711
N          0.97415       -2.84162        1.04962
N         -0.05411       -2.40503       -0.49375
C         -1.13615       -1.77149       -1.00068
N         -1.45248       -2.58808       -1.67925
C         -1.71111       -0.60722       -0.35570
C         -3.05575       -0.32620       -0.41360
H         -1.70674        2.55866        0.69285
H          0.36190        2.88811       -0.54513
H          2.63572        3.88350       -0.40953
H          3.83604        2.78423       -0.44056
H          0.50143       -3.72598        1.24183
H          1.73429       -2.80692        1.73368
H         -1.38464       -3.43981       -2.24128
H         -2.14312       -2.01301       -2.16775
H         -3.80377       -1.07567       -0.15966
