34
Coordinates from ORCA-job ./opt_b97-3c_parallel
N          0.37824        4.81748        1.30045
C          0.23542        3.74353        0.93643
C          0.05923        2.40419        0.43884
C          0.84833        2.05383       -0.71504
C          1.33647        0.77275       -0.94603
C          2.33491        0.97226       -1.95727
N          3.09649        1.02353       -2.80770
C          1.36374       -0.21762        0.10998
C          2.46028       -0.99447        0.36134
C          3.86500       -0.92487        0.08761
N          4.99118       -0.87138       -0.09855
C          1.89747       -2.14215        1.01325
N          2.28909       -3.10002        1.40456
C          0.53238       -2.17619        1.14718
C          0.23575       -0.98601        0.53928
C         -1.05198       -0.63615       -0.00918
C         -2.06411       -1.53048       -0.22661
N         -2.11527       -2.63535       -0.21336
C         -3.17078       -0.65447       -0.48447
C         -4.50916       -1.09198       -0.74977
N         -5.57405       -1.46209       -0.93802
C         -2.93108        0.69132       -0.41210
C         -1.59722        0.68584       -0.08235
C         -0.98481        1.58865        0.87527
N         -1.71041        1.96813        1.62746
H          1.25508        2.91300       -1.25155
H          2.05301       -4.04938        1.68731
H          3.28127       -3.10052        1.17264
H          0.04985       -2.43887        2.08912
H         -1.31108       -3.22966       -0.40602
H         -2.93791       -3.13082       -0.55391
H         -3.31635        1.37379       -1.16564
H         -2.61499        1.59717        1.91271
H         -1.71458        2.96018        1.86082
