32
Coordinates from ORCA-job ./opt_b97-3c_parallel
N         -2.53633       -3.72418       -1.27691
C         -1.85891       -2.80440       -1.28175
C         -1.32869       -1.66122       -0.59841
C         -2.03947       -0.50521       -0.81420
C         -1.70554        0.73844       -0.15642
C         -2.73319        1.72741       -0.07818
N         -3.80277        1.84237       -0.32633
C         -2.16651        2.82626        0.48176
C         -0.88600        2.57810        0.71444
C         -0.53178        1.31455        0.32210
C          0.85453        0.91208        0.10994
C          1.87932        1.82461        0.11474
C          2.97370        1.06108       -0.23168
N          3.87654        1.70022       -0.24198
C          2.66447       -0.26857       -0.40899
C          3.67278       -1.25148       -0.67162
N          4.48091       -2.04142       -0.84329
C          1.32971       -0.40604       -0.18808
C          0.69039       -1.68716       -0.08639
C         -0.55505       -1.67514        0.60912
N         -0.64042       -2.16993        1.59039
H         -2.96008       -0.52585       -1.39229
H         -3.80494        1.19621        0.46104
H         -4.41245        2.61780       -0.07460
H         -2.66917        3.76448        0.71507
H         -0.20639        3.29479        1.16958
H          1.72389        2.81203       -0.32176
H          4.29700        2.57453       -0.55157
H          4.64165        1.08061        0.01950
H          1.23991       -2.60193       -0.29269
H         -0.12749       -3.04976        1.59703
H         -1.62712       -2.40726        1.50089
