26
Coordinates from ORCA-job ./opt_b97-3c_parallel
N         -4.92830        1.33217       -0.28185
C         -3.86565        0.91117       -0.26712
C         -2.52502        0.41910       -0.23376
C         -2.17376       -0.89576       -0.21824
C         -0.79644       -0.83677       -0.19962
C         -0.03142       -2.06849       -0.23948
N         -0.45141       -3.09338       -0.26548
C          1.32650       -2.21498       -0.27535
C          2.02630       -1.85109        0.83635
N          2.47245       -0.85890        0.13998
C          2.24943        0.39926       -0.02954
C          3.17360        1.39529       -0.02851
C          2.52784        2.54953       -0.11587
C          1.21467        2.37912       -0.18530
C          0.97060        1.03552       -0.14667
C         -0.31080        0.47374       -0.17995
C         -1.40973        1.28903       -0.20781
H         -2.71546       -1.60791        0.40090
H         -0.95700       -2.77037       -1.08817
H         -0.03210       -3.98880       -0.50792
H          1.79714       -2.86690       -1.01850
H          2.74954       -1.98169        1.65461
H          4.25178        1.26800        0.03393
H          3.01717        3.52028       -0.12984
H          0.48973        3.18418       -0.26020
H         -1.48360        2.37107       -0.20510
