32
Coordinates from ORCA-job ./opt_b97-3c_parallel
N         -5.23506        0.05598        1.30640
C         -4.17500        0.20689        0.90703
C         -2.83267        0.40335        0.44640
C         -1.86939       -0.63774        0.64599
C         -0.61924       -0.19178        0.11572
C          0.50603       -1.11732       -0.03467
C          0.34056       -2.53048       -0.19208
C         -0.84746       -3.32155       -0.31777
N         -1.79111       -3.95127       -0.45687
C          1.65108       -3.04832       -0.41704
N          1.92158       -1.97373       -0.33437
C          1.92457       -0.87702       -0.15724
C          2.58224        0.38513        0.04359
C          4.01097        0.46556        0.07094
N          5.15037        0.53414        0.13458
C          1.76062        1.47963        0.45966
N          1.80965        2.24276        1.25864
C          1.41138        2.00113       -0.83506
C          0.06310        1.93552       -1.14406
N         -0.11699        2.77227       -1.84502
C         -0.82272        1.08239       -0.37464
C         -2.20793        1.44127       -0.21965
N         -2.79531        2.33859       -0.49818
H         -2.07541       -1.58228        1.13555
H          1.95753       -4.07966       -0.64742
H          2.80677        2.36169        1.43075
H          1.45640        3.14531        0.94354
H          2.12589        2.61341       -1.39097
H          0.01212        3.54776       -2.49221
H         -1.07242        2.44136       -1.97564
H         -3.63550        2.54361        0.03998
H         -2.08937        3.01733       -0.21760
