25
Coordinates from ORCA-job ./opt_b97-3c_parallel
N          3.38726        2.26016        0.73527
C          2.41786        1.70232        0.49899
C          1.76470        0.87097        0.16501
C          1.06653        1.41071       -0.87441
N         -0.19595        1.82360       -1.03644
C         -1.21267        1.44505       -0.23761
N         -2.36897        2.17286       -0.16694
C         -3.31861        1.30528        0.34244
C         -2.88633        0.01254        0.48800
C         -1.56668        0.10824        0.15705
C         -0.79672       -1.05597       -0.23035
C         -1.29469       -2.29850       -0.47137
C         -0.25954       -3.11031       -0.62668
C          0.89432       -2.47537       -0.46811
C          0.63220       -1.17462       -0.15012
C          1.49000       -0.36999        0.55659
N          2.04489       -0.97176        1.62626
H          1.16978        2.05152       -1.76496
H         -4.36634        1.59773        0.51472
H         -3.21885       -0.60209        1.32176
H         -2.34296       -2.57670       -0.55928
H         -0.34487       -4.17042       -0.85676
H          1.88098       -2.92882       -0.54133
H          2.04047       -1.98803        1.70224
H          2.93701       -0.63989        1.99333
