31
Coordinates from ORCA-job ./opt_b97-3c_parallel
N          1.60062        4.87949       -0.65847
C          1.46010        3.76945       -0.42817
C          1.27458        2.38826       -0.09619
C          2.17634        1.77204        0.83818
C          2.22295        0.36493        1.07235
C          2.16170       -0.39716       -0.14132
N          3.15179       -1.17780       -0.43641
C          2.49510       -2.29410       -0.57725
N          3.06059       -3.24525       -0.50669
C          1.13199       -2.43122       -0.59949
C          0.95561       -1.13250       -0.22714
C         -0.32019       -0.54455        0.11809
C         -1.48226       -1.37794        0.28123
N         -1.60149       -2.47427        0.38703
C         -2.60847       -0.47969        0.25255
C         -3.98452       -0.88272        0.35501
N         -5.07097       -1.23170        0.41335
C         -2.15789        0.87026        0.01801
N         -2.85806        1.72054       -0.09564
C         -0.72052        0.82867       -0.02691
C         -0.02478        1.98104       -0.37709
H          2.91558        2.39445        1.33563
H          3.02535        0.10433        1.75741
H          4.04622       -3.38423       -0.28422
H          2.67259       -4.17901       -0.64541
H          0.61742       -2.82860       -1.47337
H         -1.60827       -2.91851        1.30424
H         -2.51932       -2.64890       -0.02174
H         -3.83847        1.46393       -0.20996
H         -2.82965        2.73856       -0.07008
H         -0.65591        2.75905       -0.80503
