29
Coordinates from ORCA-job ./opt_b97-3c_parallel
N          3.69283       -2.52182       -0.70885
C          2.69266       -2.08574       -0.36810
C          1.41980       -1.54664        0.00673
C          0.71396       -2.73670        0.09443
N         -0.43240       -3.14422        0.66261
C         -1.13096       -2.13949        1.26529
C         -1.88878       -1.40243        0.31726
C         -3.28456       -1.57805        0.10083
N         -3.68449       -0.45203       -0.52808
C         -2.70630        0.46379       -0.69181
N         -3.48416        1.09741       -1.15767
C         -1.52492       -0.12496       -0.13420
C         -0.23762        0.50975        0.03993
C         -0.06361        1.87506       -0.01415
C         -0.93973        3.00569       -0.13973
N         -1.97040        3.46616        0.04355
C          1.34987        2.12663        0.14030
N          1.86342        3.10952        0.17134
C          2.02098        0.92002        0.22705
C          3.43955        0.75301        0.38151
N          4.56986        0.65823        0.51835
C          1.04381       -0.14114        0.18087
H          0.74130       -3.83315       -0.01034
H         -1.72448       -3.00233        1.60613
H         -3.97381       -2.38167        0.40246
H         -3.19793        2.03916       -0.88215
H         -4.19956        1.22339       -1.87370
H          2.87832        3.06150        0.26464
H          1.60486        4.07396        0.37632
