31
Coordinates from ORCA-job ./opt_b97-3c_parallel
N          5.05054       -0.56581       -0.65768
C          3.96347       -0.35953       -0.37020
C          2.56787       -0.05557       -0.19332
C          1.97361        1.17109        0.03765
N          2.58817        2.09006        0.12264
C          0.56111        0.93269        0.14818
C         -0.30084        1.98201        0.65473
N         -0.07577        2.96170        1.11845
C         -1.73064        1.84691        0.54275
C         -2.13878        1.29891       -0.72395
N         -2.89182        1.96175       -1.19699
C         -2.82355        0.10399       -0.61897
C         -2.18248       -1.05486       -0.04720
N         -3.03992       -2.07839        0.05654
C         -2.35303       -3.20866        0.43668
N         -1.40263       -2.35501        0.26320
C         -0.82258       -1.20376        0.16473
C          0.30352       -0.41235        0.00886
C          1.55939       -1.09076       -0.18265
N          1.75548       -2.17636       -0.29463
H          1.91441        2.81487       -0.12155
H          3.43093        2.27209       -0.42006
H          0.74536        2.54948        1.55881
H         -0.40621        3.69707        1.74023
H         -2.34660        2.64341        0.97105
H         -2.83047        2.96251       -1.01961
H         -3.79979        1.79515       -1.62546
H         -3.83484       -0.04786       -1.01214
H         -2.44697       -4.27898        0.67439
H          1.03479       -2.69877        0.20200
H          2.64033       -2.64961       -0.12103
