27
Coordinates from ORCA-job ./opt_b97-3c_parallel
N         -4.77300        1.46410        0.04027
C         -3.72418        1.01080        0.02173
C         -2.42718        0.41002        0.03265
C         -1.44670        1.06647        0.71249
C         -0.34800        1.62521        0.12947
C         -0.11449        3.01981       -0.02002
C          1.18978        3.20662       -0.33481
C          1.77790        2.01913       -0.37220
C          0.87444        1.02196       -0.11919
C          1.13933       -0.40091       -0.00450
C          2.39370       -0.96084        0.06247
C          3.78333       -0.62768        0.11877
N          4.88606       -0.33198        0.17479
C          2.21562       -2.32122        0.09466
C          0.92820       -2.63856        0.01853
C          0.21499       -1.49084       -0.06112
N         -1.02163       -1.42789       -0.43274
C         -2.18787       -0.87969       -0.53728
N         -2.58607       -1.74953       -1.08481
H         -1.56437        1.18569        1.78683
H         -0.83543        3.78442        0.25062
H          1.67399        4.16483       -0.50582
H          2.82971        1.86960       -0.60114
H          3.01506       -3.05606        0.17648
H          0.51781       -3.64561        0.02703
H         -3.41784       -1.19708       -1.28306
H         -2.60987       -2.55657       -1.70429
