30
Coordinates from ORCA-job ./opt_b97-3c_parallel
N          3.64924       -2.37898        0.87828
C          2.83348       -1.69514        0.46272
C          1.83068       -0.79984       -0.05485
C          1.10626       -1.21233       -1.21960
N          0.28160       -2.27722       -1.00021
C         -0.76301       -2.03779       -0.12027
C         -1.66274       -2.99191        0.23211
C         -2.73461       -2.37879        0.71101
C         -2.59806       -1.05994        0.70203
C         -1.36512       -0.75774        0.20024
C         -0.91471        0.59199       -0.15206
C         -1.77815        1.66427       -0.16129
N         -2.84517        1.94455       -0.08807
C         -1.01578        2.79848       -0.25858
C          0.28607        2.53368       -0.25789
N          1.21145        3.49624       -0.41353
C          0.41074        1.17290       -0.18937
C          1.57368        0.52791        0.22903
N          2.40161        1.03139        0.77231
H          1.24602       -2.18880       -1.70824
H         -1.52827       -4.06667        0.13539
H         -3.61844       -2.89626        1.07596
H         -3.33536       -0.35622        1.07826
H         -3.47707        2.65544       -0.45182
H         -3.24739        1.04097       -0.32978
H         -1.41195        3.81143       -0.35368
H          2.19189        3.29476       -0.22406
H          1.01700        4.45230       -0.12392
H          1.95291        1.65831        1.43829
H          3.24431        0.67461        1.21972
