27
Coordinates from ORCA-job ./opt_b97-3c_parallel
N         -4.42062        1.12156       -0.55003
C         -3.38987        0.73496       -0.24331
C         -2.09520        0.21455        0.11867
C         -1.28032        0.94994        1.03081
N         -0.78368        2.10840        0.51518
C          0.47494        1.92794       -0.02672
C          1.25533        3.06351       -0.36436
C          2.51021        2.63297       -0.62633
C          2.54042        1.31620       -0.46294
C          1.30436        0.81734       -0.12800
C          0.98181       -0.60268        0.03640
C          2.08661       -1.51138        0.01766
N          3.08755       -1.97392       -0.01096
N          1.23262       -2.22652        0.04856
C          0.22827       -2.70786       -0.02483
C         -0.18678       -1.33527        0.00837
C         -1.54483       -1.02954       -0.12859
N         -2.26034       -1.80178       -0.48507
H         -1.81268        1.89164        1.23725
H          0.91548        4.09003       -0.26890
H          3.35270        3.26110       -0.90503
H          3.43505        0.71725       -0.61205
H          3.05523       -1.08379        0.48114
H          3.43609       -2.66643        0.64812
H         -0.14811       -3.73969       -0.08855
H         -3.20251       -1.59368       -0.81158
H         -1.74562       -2.16720       -1.28414
