28
Coordinates from ORCA-job ./opt_b97-3c_parallel
N          4.92760        2.31570        0.11174
C          4.00609        1.64204        0.15734
C          2.83207        0.82304        0.17805
C          1.59376        1.40550        0.21546
C          0.75656        0.31617        0.15226
C         -0.69422        0.48671        0.11925
N         -1.23082        1.66927        0.20559
C         -2.53256        1.63822        0.06286
N         -2.84718        2.69409        0.17067
C         -2.86720        0.31274       -0.15211
C         -4.24706       -0.00994       -0.35919
N         -5.22650        0.47787       -0.02507
C         -1.74746       -0.46017       -0.10607
C         -1.80551       -1.88949       -0.29132
C         -0.62615       -2.65556       -0.08794
N          0.36644       -3.08150        0.10354
C          0.98964       -2.17772        0.11213
C          1.50073       -0.84247        0.12549
C          2.84510       -0.60554        0.13671
N          3.72493       -1.27460        0.11226
H          1.39613        2.30366       -0.36633
H         -3.85912        2.56159        0.22637
H         -2.67918        3.67501        0.39412
H         -2.74446       -2.38840       -0.51336
H         -1.00148       -3.67762       -0.25937
H          1.73995       -2.98747        0.12163
H          4.63021       -0.80859        0.15660
H          3.91408       -2.27344        0.04648
