23
Coordinates from ORCA-job ./opt_b97-3c_parallel
N          4.07210        0.76418       -0.07866
C          3.10146        0.16738        0.00893
C          1.88875       -0.59029        0.07063
C          1.98236       -2.01855        0.15317
C          0.82855       -2.75811        0.16906
C         -0.04230       -1.70786        0.11018
N         -1.04977       -2.04252       -0.71790
C         -2.24932       -1.46066       -0.39273
N         -2.60917       -0.80849        0.65843
C         -2.56996        0.47071        0.51075
C         -1.41186        1.23971        0.15157
C         -1.52291        2.65317        0.11021
C         -0.29141        3.14561       -0.15170
C          0.54785        2.12349       -0.27428
C         -0.08553        0.91940       -0.08191
C          0.53765       -0.39445        0.04597
H          2.96257       -2.48523        0.18696
H          0.69092       -3.53809        0.91538
H         -2.71637       -1.96913       -1.24952
H         -3.57519        0.86392        0.72208
H         -2.42714        3.20981        0.33621
H         -0.03779        4.19644       -0.26844
H          1.59529        2.24962       -0.52941
