20
Coordinates from ORCA-job ./opt_b97-3c_parallel
C          0.74022        2.37588        0.12628
C         -0.61441        2.46511        0.58943
N         -1.61016        1.66570        0.15358
C         -1.65637        0.37259       -0.24544
N         -2.87020       -0.22665       -0.48580
C         -2.67516       -1.60151       -0.47039
N         -1.35509       -1.89625       -0.16750
C         -0.71407       -0.68788       -0.05005
C          0.70683       -0.62064        0.18902
C          1.44455       -1.76681        0.60610
N          2.17850       -0.92793        0.47649
C          2.85744       -0.07951        0.19633
C          1.54898        0.39042       -0.11283
C          1.15128        1.48788       -0.81055
H          1.42617        3.14360        0.47556
H         -0.59570        3.44238        1.09640
H         -3.41834       -2.40027       -0.62059
H          1.45470       -2.82381        0.91261
H          3.95700       -0.03144        0.23406
H          1.71073        1.82047       -1.68293
