30
Coordinates from ORCA-job ./opt_b97-3c_parallel
N         -5.64291       -0.29105        1.43065
C         -4.54204       -0.36220        1.13471
C         -3.17238       -0.41220        0.73518
C         -2.50827       -1.52795        0.30567
C         -1.25250       -1.06546       -0.02099
C         -0.34192       -1.95239       -0.73365
C          1.05877       -1.99314       -0.71109
C          1.41677       -3.27204       -1.26659
N          1.81642       -4.33914       -1.17115
C          1.91999       -1.19000        0.14059
N          2.83091       -1.65680        0.57063
C          1.68397        0.15531        0.33824
C          2.36274        0.99234        1.29503
N          2.88024        1.70631        2.02150
C          0.97296        0.77520       -0.74659
N          0.90083        2.06139       -0.91460
C          0.72593        3.32202       -0.67362
N          1.16861        4.30950       -0.45888
C         -0.41984        2.60762       -0.49580
C         -0.24064        1.26167       -0.35944
C         -1.20380        0.31155        0.14300
C         -2.38859        0.76380        0.63577
H         -3.01582       -2.27633       -0.30044
H         -0.87047       -2.82644       -1.11761
H          2.78041       -2.67560        0.53634
H          3.73857       -1.43338        0.97769
H          2.11250        4.54059       -0.14815
H          0.68010        5.19910       -0.56128
H         -1.39327        3.02934       -0.75432
H         -2.73150        1.77444        0.83629
