27
Coordinates from ORCA-job ./opt_b97-3c_parallel
N          4.86183        0.15871       -0.47033
C          3.76993       -0.17972       -0.45860
C          2.40834       -0.61390       -0.40237
C          1.95233       -1.89237       -0.50059
C          0.64843       -1.93114       -0.25447
C          0.17790       -0.66738       -0.03203
C         -1.23048       -0.30903        0.11745
C         -2.24423       -1.32078        0.22388
N         -2.41055       -2.40712        0.33788
C         -3.46667       -0.72796        0.06319
C         -3.31571        0.56779       -0.17553
C         -1.99663        0.89491       -0.13231
C         -1.50008        2.16188       -0.61231
C         -0.26727        2.68610       -0.11704
C          0.37203        2.11622        0.93252
C          1.41577        1.55287        0.28168
C          1.30054        0.22922       -0.07242
H          2.57000       -2.75830       -0.72620
H          0.05686       -2.84123       -0.27455
H         -3.04547       -2.95238        0.91709
H         -1.54236       -2.30698        0.85983
H         -4.43814       -1.22419        0.10134
H         -4.12967        1.26977       -0.34007
H         -2.16160        2.83446       -1.14889
H         -0.00288        3.68848       -0.44154
H          0.52191        2.66467        1.85942
H          2.36899        2.07158        0.23298
