30
Coordinates from ORCA-job ./opt_b97-3c_parallel
N          2.97234        3.07027       -0.85105
C          2.45750        2.51308        0.00333
C          1.34364        1.61534       -0.12797
C          0.10214        1.99589       -0.56654
N         -0.78334        2.23897        0.45830
C         -1.71760        1.24787        0.70084
N         -2.24203        2.00716        1.30700
C         -1.79714        0.04569       -0.09843
C         -2.99803       -0.59425       -0.30354
N         -4.03369       -0.30568       -0.04534
C         -2.70781       -1.79051       -0.89969
C         -1.39693       -1.95334       -1.02475
C         -0.76099       -0.84925       -0.54816
C          0.64036       -0.79634       -0.16135
C          1.38915       -2.00671       -0.08031
C          2.65262       -1.72185        0.32206
N          3.66040       -2.56835        0.57339
C          2.72836       -0.40203        0.45051
C          1.54546        0.21021        0.12762
H          0.23771        3.08686       -0.63906
H         -2.48722        2.52388        2.15120
H         -2.96695        1.29557        1.19032
H         -4.48207       -1.22009        0.02363
H         -4.66942        0.27018       -0.59982
H         -3.44589       -2.51727       -1.23773
H         -0.92053       -2.81284       -1.49223
H          0.97807       -2.99829       -0.24134
H          3.47538       -3.54441        0.79936
H          4.47057       -2.26612        1.11230
H          3.62661        0.12252        0.77112
