25
Coordinates from ORCA-job ./opt_b97-3c_parallel
N         -3.05063        1.05273        0.88698
C         -1.98480        1.03635        0.57209
C         -1.62097        1.67603       -0.67214
C         -0.31933        2.10756       -0.88251
C          0.86581        1.53879       -0.26806
C          2.11144        2.10869       -0.26658
N          2.95348        1.20223        0.22308
C          2.33542        0.00289        0.53087
N          3.24440       -0.55740        0.83135
C          0.97100        0.25695        0.20882
C          0.01797       -0.81856        0.04087
C          0.06335       -2.26060       -0.33180
C         -0.79456       -3.30859       -0.48725
N         -1.76007       -2.44557       -0.16065
C         -1.37421       -1.19122        0.08046
N         -2.37251       -0.29038        0.44771
H         -3.19982        2.06417        0.93302
H         -3.90389        0.66368        1.30108
H         -2.42522        2.13395       -1.24748
H         -0.16926        2.96071       -1.54032
H          2.57929        3.07090       -0.53244
H          4.19797       -0.25526        0.61429
H          3.37483       -1.33774        1.47864
H          1.12667       -2.41806       -0.50502
H         -0.77170       -4.38105       -0.73920
