31
Coordinates from ORCA-job ./opt_b97-3c_parallel
N          5.74300        0.72909        0.66966
C          4.63265        0.54134        0.48027
C          3.25125        0.26752        0.22253
C          2.85568       -1.00883       -0.07071
C          1.51545       -0.79937       -0.28313
C          0.71604       -1.58835       -1.17022
N          0.98557       -2.51938       -1.70553
N         -0.12223       -2.38874       -0.50632
C         -1.02803       -2.02384        0.42626
N         -1.11215       -3.08890        0.71249
C         -1.76705       -0.77476        0.49627
C         -3.02475       -0.86988        1.17747
N         -4.01378       -0.98377        1.73729
C         -1.39500        0.48590       -0.14751
C         -2.33450        1.47008       -0.30943
C         -3.67986        1.97688       -0.26459
N         -4.45964        1.41954       -0.88824
C         -1.61732        2.63406       -0.72065
N         -0.81124        1.87952       -0.57343
C         -0.09157        1.05184       -0.41596
C          1.13607        0.50131       -0.12101
C          2.22526        1.26296        0.19587
N          2.31683        2.35239        0.35908
H          3.20354       -1.84845        0.52806
H          1.86711       -2.24494       -2.13928
H          0.72338       -3.40227       -2.14514
H         -1.88581       -2.84693        1.33173
H         -1.10339       -4.10695        0.66293
H         -1.68045        3.69631       -1.00447
H          1.61920        3.07791        0.19974
H          3.17647        2.82950        0.62977
