30
Coordinates from ORCA-job ./opt_b97-3c_parallel
N          4.75427        1.02699        1.36467
C          3.67978        0.96582        0.98034
C          2.34022        0.84469        0.49431
C          2.17253        1.90851       -0.33976
N          0.92387        1.95148       -0.74431
C          0.32918        0.74778       -0.42918
C         -1.06348        0.78064       -0.11155
C         -1.83832        1.90494        0.06242
N         -1.84493        3.00896        0.01415
C         -3.02639        1.44308        0.55833
C         -2.99761        0.12212        0.69006
C         -1.81066       -0.37232        0.22801
C         -1.65148       -1.59368       -0.38391
N         -2.79550       -1.98180       -0.98181
C         -0.61898       -2.43352       -0.29003
C          0.63590       -2.34518        0.16913
N          1.25869       -3.52986        0.31883
C          1.40346       -1.28289        0.44555
C          1.28266        0.02781        0.22194
H          2.54881        2.90279       -0.62451
H         -2.15367        3.96576       -0.14516
H         -0.93187        2.91626       -0.42901
H         -3.87874        2.05870        0.84845
H         -3.81328       -0.47689        1.08840
H         -3.66358       -1.48358       -0.79563
H         -3.01306       -2.97213       -1.07263
H         -0.88049       -3.43320       -0.64148
H          0.89588       -4.35954       -0.14707
H          2.27563       -3.57894        0.29850
H          2.37294       -1.54593        0.87170
