23
Coordinates from ORCA-job ./opt_b97-3c_parallel
N          3.74795        0.97151        0.35043
C          2.70333        0.63992        0.19324
C          1.53672        1.34074        0.01567
C          0.56408        0.38821       -0.09081
C         -0.83023        0.77901       -0.30258
C         -1.20598        2.06928       -0.54627
C         -2.49848        2.19254       -0.27729
C         -3.03143        1.05119        0.13086
C         -2.04646        0.11800        0.13444
C         -2.16547       -1.12816        0.84863
N         -1.43682       -2.18490        0.48837
C         -0.76595       -2.14900       -0.65818
N          0.59069       -2.13205       -0.52744
C          1.15508       -0.92561       -0.14145
N          2.50168       -0.72350        0.04355
H          4.08275        1.92570        0.20280
H          4.55975        0.45530        0.69476
H          1.35689        2.27402        0.54785
H         -0.56868        2.87046       -0.91478
H         -3.05822        3.12003       -0.38369
H         -4.07052        0.89310        0.41342
H         -2.41037       -2.03842        1.41682
H         -0.35026       -3.15385       -0.83526
