25
Coordinates from ORCA-job ./opt_b97-3c_parallel
N         -3.97318       -1.28522       -0.14586
C         -2.95959       -0.86603       -0.09336
N         -2.84812        0.50688       -0.03129
C         -1.51067        0.81735        0.01735
N         -1.21422        2.14193        0.24039
C         -0.03602        2.85295        0.26435
C          1.30958        2.60769       -0.15266
C          2.05360        1.46213       -0.30151
C          1.75734        0.07662       -0.05174
C          2.80484       -0.82248       -0.04498
N          3.90513       -0.83206       -0.14055
C          2.28043       -2.07208        0.13609
C          0.96101       -2.01329        0.22865
C          0.57640       -0.70929        0.11917
C         -0.76927       -0.39568        0.02607
N         -1.69553       -1.41875       -0.03804
H         -4.21731       -2.27255       -0.14810
H         -4.83626       -0.75634       -0.25049
H         -0.40767        3.87817        0.41001
H          1.86193        3.53411       -0.26966
H          3.09573        1.65473       -0.53754
H          4.20826        0.10012        0.13389
H          4.68929       -1.45914        0.03005
H          2.85123       -2.99862        0.19806
H          0.31740       -2.87695        0.38237
