30
Coordinates from ORCA-job ./opt_b97-3c_parallel
N          2.57832        3.73958       -0.69851
C          2.09799        2.75936       -0.36370
C          1.53315        1.50224        0.05774
C          0.58334        1.49517        1.12511
N         -0.63199        2.01948        0.79530
C         -1.49371        1.07998        0.25388
C         -2.85849        1.41390        0.06454
C         -3.53935        0.28752       -0.25721
N         -4.84137        0.16053       -0.55704
C         -2.66192       -0.71198       -0.24032
C         -1.38740       -0.28785        0.04943
C         -0.19851       -1.13245        0.14073
C         -0.33529       -2.55041        0.14660
C          0.81795       -3.28546        0.12768
C          1.71201       -2.24753       -0.01753
N          2.68397       -2.76852       -0.12099
C          1.15409       -0.91593        0.00471
C          1.93299        0.21437       -0.25036
N          2.91873        0.12865       -0.75584
H          0.36999        2.53373        1.42229
H         -3.27696        2.39043        0.28804
H         -5.15397       -0.59163       -1.16763
H         -5.39802        0.98686       -0.76849
H         -2.92607       -1.73563       -0.49224
H         -1.30397       -3.03556        0.18960
H          0.95816       -4.08474        0.85735
H          3.13203       -3.44981        0.48931
H          3.10860       -1.86666        0.09439
H          2.78071       -0.67438       -1.36838
H          3.30989        0.87068       -1.33381
