28
Coordinates from ORCA-job ./opt_b97-3c_parallel
N          3.14909        0.20154        1.18069
C          2.25276        0.27989        0.54074
C          1.68086        1.57899        0.32175
C          0.52476        1.75970       -0.52419
N          0.19168        3.02707       -0.93090
C         -1.13238        2.97736       -1.34032
N         -1.67746        1.73132       -1.06818
C         -0.65059        0.94530       -0.60184
C         -0.91398       -0.28727        0.10943
C         -2.15387       -0.72024        0.52212
N         -3.21801       -0.42553        0.55845
C         -1.95129       -1.95084        1.08756
C         -0.67545       -2.30744        0.99825
C          0.02067       -1.33521        0.35107
C          1.11412       -1.52653       -0.44289
N          0.99847       -2.52560       -1.33406
C          2.17955       -0.74242       -0.36061
H          3.77167       -0.60202        1.23840
H          3.73624        1.02192        1.04563
H          2.19039        2.45741        0.70960
H         -1.60224        3.89797       -1.71751
H         -2.96786        0.37266       -0.02382
H         -4.13378       -0.74130        0.24591
H         -2.71641       -2.56296        1.56631
H         -0.25424       -3.23392        1.37896
H          1.82981       -2.98732       -1.69558
H          0.27131       -3.22865       -1.21693
H          3.01315       -0.91115       -1.04240
