31
Coordinates from ORCA-job ./opt_b97-3c_parallel
N          5.40572        2.23243        0.49143
C          4.42231        1.66933        0.34166
C          3.21319        0.93995        0.13463
C          3.15204       -0.41845        0.01439
C          1.80870       -0.64196       -0.17059
C          1.18634       -1.85577       -0.63123
N          1.46901       -2.18026       -1.64906
C          0.47177       -2.94512       -0.01859
C         -0.88696       -2.63844        0.32978
N         -1.75815       -3.12885        0.78982
N         -1.42487       -1.48361        0.10434
C         -1.34311       -0.20421       -0.09479
C         -2.52871        0.60250       -0.16758
C         -3.85830        0.08225       -0.03171
N         -4.92464       -0.30835        0.10314
C         -2.19987        1.91626       -0.30996
N         -2.99154        2.99159       -0.45960
C         -0.87735        1.97857       -0.30364
C         -0.33234        0.72958       -0.19080
C          1.04082        0.50987       -0.11110
C          1.95210        1.58561        0.06880
H          3.89613       -0.96420       -0.56131
H          2.15241       -1.62003       -2.15451
H          1.30226       -3.01687       -2.20483
H          0.88187       -3.92942        0.18940
H         -1.12326       -3.76719        1.26383
H         -2.40759       -2.77807        1.49024
H         -3.97707        2.94267       -0.20606
H         -2.64831        3.92315       -0.23405
H         -0.32061        2.90258       -0.43412
H          1.75309        2.64713        0.17014
