29
Coordinates from ORCA-job ./opt_b97-3c_parallel
N          2.93277        3.09378       -1.68145
C          2.12046        2.45832       -1.18898
C          1.14078        1.62148       -0.56614
C          0.45602        2.37673        0.33809
C         -0.86714        2.38398        0.39409
C         -1.63871        1.64627       -0.45827
N         -2.31555        2.39015       -0.91332
C         -1.93559        0.26378       -0.20959
C         -3.15389       -0.33055       -0.32536
C         -3.07100       -1.58009        0.11858
C         -1.78178       -1.87571        0.47718
N         -1.65794       -2.94840        0.71664
C         -0.99240       -0.69043        0.29511
C          0.45820       -0.72906        0.21851
N          1.13941       -1.92132        0.32117
C          2.41355       -1.70636       -0.18800
N          3.09818       -2.56966       -0.17379
N          2.54155       -0.40220       -0.64658
C          1.33867        0.21014       -0.38719
H          1.00795        2.97328        1.06395
H         -1.34237        2.98308        1.17415
H         -2.44036        3.39914       -0.98440
H         -3.21325        1.97031       -1.14922
H         -4.06577        0.15239       -0.66994
H         -3.92089       -2.26218        0.16381
H         -0.98351       -3.58103        1.14228
H         -2.52813       -3.47532        0.64396
H          4.07426       -2.48517       -0.45520
H          2.95853       -3.54315        0.09454
