31
Coordinates from ORCA-job ./opt_b97-3c_parallel
N          5.13893       -0.99812        0.02291
C          4.03403       -0.71301        0.00852
C          2.64358       -0.36711       -0.04668
C          2.30418        0.94932       -0.19231
C          0.93293        0.86507       -0.22182
C          0.12478        1.79505       -0.96011
N          0.47945        2.74149       -1.41835
N         -0.56741        2.63974       -0.19078
C         -1.53134        2.32429        0.69661
N         -1.84798        3.29878        1.10136
C         -2.36534        1.14357        0.64890
C         -2.03564       -0.17307        0.14001
C         -3.08646       -1.13381        0.13868
C         -2.47797       -2.38985       -0.19377
N         -2.77810       -3.44573       -0.32424
N         -1.10879       -2.19644       -0.34445
C         -0.89153       -0.88107       -0.14667
C          0.49217       -0.42896       -0.09569
C          1.55169       -1.29506        0.01732
N          1.73049       -2.38182        0.12846
H          2.81173        1.72323        0.38156
H          1.36406        2.55175       -1.89320
H          0.28158        3.72429       -1.62582
H         -2.64679        3.16037        1.72060
H         -1.75540        4.30855        0.99321
H         -3.36204        1.25315        1.07073
H         -4.13190       -0.96312        0.38019
H         -2.21665       -4.27316       -0.53208
H         -3.73327       -3.79147       -0.21734
H          2.69651       -2.67628        0.27920
H          1.18619       -3.23944        0.05664
