30
Coordinates from ORCA-job ./opt_b97-3c_parallel
N          3.83975        0.15979       -0.59544
C          3.32924        1.07165       -0.13598
C          1.90720        1.21653       -0.06155
C          1.51544        2.58387       -0.18639
C          0.18254        2.88141       -0.10571
C         -0.34551        1.62350        0.03104
C         -1.43588        1.43133        0.96096
C         -2.70590        1.06691        0.36630
N         -3.65861        1.54321        0.65345
C         -2.85198       -0.03105       -0.56284
C         -1.78811       -0.99940       -0.59425
N         -1.85542       -1.49036       -1.58330
C         -0.67227       -1.45911        0.18711
C         -0.33977       -2.82186        0.39081
N          1.00354       -2.95571        0.73169
C          1.52559       -1.70374        0.68613
N          2.51277       -2.13437        0.93525
C          0.48197       -0.77712        0.34817
C          0.68862        0.62492        0.09252
H          2.25188        3.37267       -0.32056
H         -0.27226        3.61446       -0.76831
H         -1.54927        2.24482        1.67488
H         -4.59184        1.26957        0.35077
H         -3.66841        2.55856        0.73877
H         -3.84671       -0.23637       -0.96189
H         -2.83836       -1.76410       -1.58759
H         -1.51403       -1.66105       -2.52882
H         -0.96685       -3.71234        0.23261
H          3.05790       -1.56569        0.28491
H          3.19103       -2.59425        1.54058
