32
Coordinates from ORCA-job ./opt_b97-3c_parallel
N          3.40806        1.62624       -1.73995
C          3.01632        1.62923       -0.66396
C          2.00450        1.45388       -0.21657
C          2.33749        0.44468        0.66584
C          1.96551       -0.91471        0.46121
C          2.67807       -2.06354        0.89130
C          2.16533       -3.23998        0.39805
C          1.02915       -2.80685       -0.25866
N          0.45010       -3.72617       -0.46524
C          0.89831       -1.37748       -0.29954
C         -0.32852       -0.65085       -0.48620
N         -1.34495       -1.42024       -1.04263
C         -2.42173       -0.96217       -0.42632
N         -2.94041       -1.73851       -1.03018
C         -2.10326        0.02042        0.46864
C         -3.38408        0.21633        1.08198
N         -4.42510        0.35257        1.53161
C         -0.78899        0.41043        0.27925
C         -0.31170        1.68676        0.35774
C         -1.07603        2.42599        0.72235
N         -1.70685        3.06496        1.43223
C          0.88368        2.18257       -0.06998
N          1.02295        3.50349       -0.38636
H          3.11808        0.58729        1.41944
H          3.60004       -1.98112        1.45886
H          2.83962       -3.97753       -0.03949
H          0.20025       -4.34007        0.30992
H          1.03068       -4.28254       -1.09317
H         -3.93086       -1.49209       -1.00300
H         -2.90300       -2.71928       -1.31105
H          1.75468        3.82012       -1.02260
H          0.21614        4.11856       -0.47523
