30
Coordinates from ORCA-job ./opt_b97-3c_parallel
N         -5.22896       -2.32461        0.38628
C         -4.30038       -1.67633        0.24092
C         -3.11732       -0.89245        0.09089
C         -3.07819        0.42043       -0.27950
C         -1.73313        0.71931       -0.25403
C         -1.25395        1.94034       -0.87150
N         -1.82343        2.63295       -1.51649
C         -0.05367        2.53865       -0.55308
C          0.51612        2.14348        0.69922
N          1.27357        2.84848        1.10244
N          1.67003        1.50407        0.51194
C          1.54315        0.18132        0.07743
C          2.70211       -0.63599       -0.06347
C          4.06574       -0.22769        0.03437
N          5.14763        0.12092        0.14022
C          2.21705       -1.97855       -0.23452
N          2.61710       -3.00477       -0.36654
N          0.82502       -1.96421       -0.17149
C          0.46742       -0.67362       -0.00786
C         -0.97205       -0.40539        0.06348
C         -1.82897       -1.44826        0.28234
H         -3.82601        1.12670        0.07755
H         -2.63101        2.10677       -1.85286
H         -1.92720        3.56803       -1.91375
H          0.30653        3.44300       -1.05367
H          2.10003        3.20696        1.58812
H          0.57608        3.58905        1.21357
H          2.21049       -3.93225       -0.51113
H          3.62793       -3.15712       -0.41128
H         -1.63092       -2.48771        0.52911
