28
Coordinates from ORCA-job ./opt_b97-3c_parallel
N         -4.56213       -0.55628        1.41912
C         -3.53552       -0.40812        0.94299
C         -2.26139       -0.25679        0.30564
C         -1.77771        1.03324        0.36610
C         -0.54771        1.47058       -0.09014
C         -0.18093        2.79038       -0.20296
N         -0.46029        3.86168       -0.14435
N          1.11205        2.99387       -0.49212
C          1.68119        1.72663       -0.53807
C          0.67064        0.73495       -0.29010
C          0.99223       -0.67396       -0.05797
C          2.33536       -1.14514        0.16764
C          3.52762       -0.37111        0.31804
N          4.45047        0.29065        0.43620
C          2.28337       -2.48948        0.34011
C          1.02457       -2.88472        0.22799
C          0.21013       -1.81862       -0.03183
N         -1.03304       -2.13605       -0.45134
C         -1.85132       -1.08499       -0.79817
N         -2.38711       -1.98186       -1.18134
H         -2.41999        1.79150        0.81146
H          0.16316        4.67011       -0.08067
H         -1.39938        4.26270       -0.12900
H          2.66188        2.19320       -0.72532
H          3.13446       -3.13683        0.54556
H          0.69599       -3.91849        0.32875
H         -3.35408       -2.05206       -0.85506
H         -2.32475       -2.65433       -1.94920
