29
Coordinates from ORCA-job ./opt_b97-3c_parallel
N          5.22865        1.80283        0.55623
C          4.27435        1.19902        0.37914
C          3.10605        0.40379        0.14684
C          1.80194        0.92036        0.44345
C          0.83500       -0.08762        0.11414
C         -0.61836        0.17375        0.16072
C         -1.14391        1.51543       -0.00293
C         -0.45585        2.74705       -0.26689
N          0.05609        3.74716       -0.47798
C         -2.57666        1.40525       -0.03109
N         -3.32105        2.21144       -0.18064
C         -2.92233        0.08314        0.13528
C         -4.20910       -0.54923        0.19387
N         -5.32001       -0.70792       -0.02817
C         -1.71513       -0.68305        0.24598
N         -1.71255       -2.05096        0.50570
C         -0.48817       -2.52782        0.62013
N          0.03796       -3.08480       -0.51431
C          1.17604       -2.46848       -0.85945
C          1.56703       -1.18111       -0.32504
C          2.96808       -0.87190       -0.35670
N          3.80663       -1.51597       -0.68180
H          1.62232        1.89466        0.87957
H         -4.28721        2.02445       -0.44842
H         -3.13744        3.18832       -0.40461
H         -1.29714       -3.26498        0.73980
H          1.60817       -3.32947       -1.39451
H          3.80939       -2.52664       -0.56241
H          4.75909       -1.19499       -0.51901
