24
Coordinates from ORCA-job ./opt_b97-3c_parallel
N          1.61569       -1.63756        1.38652
C          1.14529       -1.13506        0.51331
N          0.47866       -2.29053        0.43309
C         -0.42132       -2.56413       -0.53124
C         -1.64942       -1.81526       -0.70162
C         -1.93046       -0.48543       -0.19950
N         -3.24664       -0.11915       -0.18158
C         -3.29804        1.18401        0.27203
N         -2.04270        1.46921        0.45990
C         -1.14811        0.58147        0.17857
C          0.26733        0.81245        0.08171
C          0.84674        2.03090        0.28509
N          2.03835        1.80394       -0.21782
C          2.43794        0.57071       -0.68111
N          3.48062        0.80807       -0.97604
C          1.27093       -0.03312       -0.29087
H          2.10628       -2.53601        1.44078
H          1.47882       -1.36667        2.36408
H         -0.92673       -3.47881       -0.88064
H         -2.49368       -2.34433       -1.14270
H         -4.30906        1.61358        0.35064
H          0.41486        2.98153        0.63804
H          4.21794        0.19809       -1.33598
H          3.88157        1.74792       -1.03350
