27
Coordinates from ORCA-job ./opt_b97-3c_parallel
N         -2.62772       -3.52455       -0.43625
C         -1.69440       -2.88305       -0.28270
C         -0.51398       -2.08916       -0.13625
C          0.71628       -2.64200        0.06622
C          1.51383       -1.51769        0.16524
C          2.75318       -2.17103        0.47799
N          3.75012       -2.66343        0.74249
C          0.85010       -0.31963       -0.05699
C          1.51220        0.91919       -0.06490
C          2.92498        0.94741        0.18911
N          4.04810        1.00889        0.39099
C          0.90962        2.20270       -0.37196
N          1.20973        3.25927       -0.50110
N         -0.32832        2.49465       -0.60594
C         -1.43555        2.51529        0.06441
C         -2.16580        1.30179        0.21992
C         -3.36373        1.27005        0.99941
N         -3.38813        0.20215        0.73316
C         -3.09064        0.01797       -0.31085
C         -1.65804        0.11271       -0.39747
C         -0.46222       -0.67499       -0.24246
H          1.00675       -3.51362       -0.52515
H          2.10792        2.95926       -0.87504
H          0.92265        4.07236       -1.04257
H         -1.64423        3.52088        0.45888
H         -3.92898        2.02373        1.56821
H         -3.76179       -0.78142       -0.66269
