28
Coordinates from ORCA-job ./opt_b97-3c_parallel
N          5.14910        2.34922        0.29363
C          4.21895        1.69187        0.20842
C          3.04017        0.89583        0.07683
C          1.75312        1.47946       -0.02852
C          0.88767        0.35546       -0.13104
C         -0.54613        0.62514       -0.23137
C         -1.01725        1.89830       -0.41639
C         -2.36306        1.80405       -0.15886
N         -2.89126        2.77102       -0.24607
C         -2.78696        0.53841        0.17608
C         -4.08465        0.04038        0.52708
N         -5.13341       -0.33677        0.77932
C         -1.62152       -0.27537        0.09802
N         -1.64678       -1.55797        0.50002
C         -0.75354       -2.45653        0.10362
N          0.05970       -2.38361       -0.89496
C          1.25484       -2.08817       -0.52718
N          1.86332       -2.99536       -0.70324
C          1.69646       -0.77533       -0.13955
C          3.02280       -0.46800        0.05690
H          1.50455        2.53605       -0.00411
H         -0.64255        2.50479       -1.24049
H         -3.85138        2.46899       -0.40495
H         -2.84836        3.75726       -0.49612
H         -1.11649       -3.33422        0.65947
H          1.47309       -3.86341       -1.06495
H          2.03327       -2.39230       -1.50594
H          3.63626       -1.04788        0.74287
