29
Coordinates from ORCA-job ./opt_b97-3c_parallel
N         -4.15822        2.76320        1.02225
C         -3.27689        2.12427        0.67388
C         -2.13001        1.32879        0.26813
C         -2.64112        0.03518        0.28808
C         -2.07357       -1.18094       -0.00907
C         -2.97112       -2.29035       -0.09501
N         -1.97488       -2.77475       -0.22314
C         -0.91970       -3.12809       -0.23640
C         -0.83302       -1.70672       -0.11036
C          0.47129       -1.15284        0.07469
N          1.57091       -1.82758        0.18739
C          2.78099       -1.37436        0.30986
N          3.24410       -2.36289        0.51027
C          2.37066       -0.07655        0.06745
C          3.69899        0.47580        0.12247
N          4.41251        0.92743        0.89325
C          1.00459        0.09309       -0.08788
C          0.42012        1.32563       -0.41092
C          1.41994        2.23600       -0.94718
N          1.93965        2.39618       -1.95340
C         -0.86986        1.87167       -0.26173
N         -1.04763        2.95681       -0.46102
H         -3.70188       -0.08662        0.52488
H         -4.03959       -2.55148       -0.04717
H         -0.87670       -4.22434       -0.32964
H          3.43652       -3.35721        0.63243
H          4.09216       -1.87629        0.80590
H         -0.41380        3.57506       -0.96633
H         -1.93812        3.45218       -0.41661
