34
Coordinates from ORCA-job ./opt_b97-3c_parallel
N         -3.86078       -2.71150       -1.60196
C         -2.99861       -2.15162       -1.10353
C         -1.92462       -1.41568       -0.50481
C         -0.67382       -1.85973       -0.86668
C          0.52136       -1.25645       -0.31245
C          1.71760       -2.05006       -0.25767
N          1.80655       -3.12143       -0.52926
C          2.72280       -1.15210        0.26588
C          4.04645       -1.68308        0.47771
N          4.86952       -2.14278        1.12275
C          2.17805        0.11017        0.44521
N          2.89142        0.86024        0.83487
C          0.79273        0.04491        0.06590
C          0.01081        1.27527       -0.08775
C          0.57474        2.52094       -0.30369
C          1.74014        3.33599       -0.49122
N          2.61307        3.47110       -1.21797
C         -0.45194        3.40686       -0.52960
C         -1.62381        2.79387       -0.48611
C         -1.40898        1.48712       -0.19874
C         -2.43698        0.55281        0.18364
C         -3.82581        0.90611        0.23268
N         -4.92920        1.19359        0.30644
C         -1.99072       -0.68915        0.73574
N         -2.01616       -1.09255        1.76525
H         -0.58034       -2.76279       -1.46500
H          2.73735       -3.45207       -0.28037
H          1.14229       -3.70155       -0.02079
H          2.81028        1.87468        0.84762
H          3.86544        0.64542        1.04291
H         -0.35400        4.47429       -0.73597
H         -2.59014        3.26936       -0.63854
H         -2.20320       -2.08591        1.63794
H         -2.76697       -0.72542        2.34756
