32
Coordinates from ORCA-job ./opt_b97-3c_parallel
N         -5.23788        1.25154        0.36334
C         -4.15829        1.42657        0.03353
C         -2.79070        1.59549       -0.34618
C         -2.17589        2.72930       -0.78474
C         -0.85751        2.56518       -0.76991
C         -0.55357        1.29596       -0.37082
C          0.76813        0.82765        0.00589
C          1.82675        1.77007        0.16320
C          3.05117        1.04449        0.26159
C          4.32921        1.66513        0.44389
N          5.34145        2.16430        0.62170
C          2.78187       -0.36159        0.07012
N          3.61950       -1.08527        0.06252
C          1.34581       -0.49224       -0.08341
C          0.72163       -1.66152       -0.51648
N          1.29673       -2.42016       -1.08729
C         -0.59837       -1.99881       -0.25376
C         -1.33065       -3.12389       -0.77952
N         -1.93405       -4.01894       -1.15204
C         -1.10622       -1.39448        0.95018
N         -1.95853       -1.57738        1.63895
N         -2.01251       -0.44119        0.71465
C         -1.78653        0.60814       -0.10512
H         -2.68758        3.63984       -1.09011
H         -0.14107        3.31941       -1.08858
H          1.73383        2.85107        0.19990
H          4.57763       -0.82751        0.29944
H          3.58521       -2.10344        0.06571
H          2.11432       -1.94923       -1.47706
H          1.20993       -3.29997       -1.59661
H         -2.65380       -1.44816        2.37555
H         -1.68176       -2.55827        1.69590
