31
Coordinates from ORCA-job ./opt_b97-3c_parallel
N          3.99170        2.98003       -0.73766
C          3.18658        2.19167       -0.55167
C          2.21083        1.17145       -0.31141
C          0.87587        1.46350       -0.35864
C          0.31220        0.24610       -0.06541
C         -1.10687        0.01976        0.11703
C         -2.07299        1.07654        0.25593
C         -1.77766        2.41899        0.65879
N         -1.51433        3.47460        1.00826
C         -3.32578        0.59042        0.00063
N         -4.49374        1.25051        0.00604
C         -3.21316       -0.69086       -0.32818
C         -1.91554       -1.10042       -0.27819
C         -1.46178       -2.26744       -0.99467
C         -0.30813       -2.97797       -0.74130
N          0.60102       -2.94723        0.24543
C          1.06425       -1.90520        0.94220
N          1.59254       -2.72828        1.45911
C          1.27877       -0.68499        0.21196
C          2.53729       -0.16300        0.08610
N          3.52512       -0.62854        0.27600
H          0.47137        2.10466       -1.13967
H         -4.57964        2.15431        0.47044
H         -5.37761        0.75342        0.10463
H         -4.05066       -1.32897       -0.60912
H         -2.21078       -2.73693       -1.62856
H         -0.46552       -3.90666       -1.31242
H          2.21289       -1.97751        1.76421
H          1.86683       -3.55317        1.99204
H          4.05167       -1.45549       -0.00437
H          4.10047        0.16891        0.00046
