30
Coordinates from ORCA-job ./opt_b97-3c_parallel
N          0.90997       -4.09738        0.26048
C          0.68735       -2.97702        0.19707
C          0.42631       -1.56809        0.16496
C         -0.81724       -1.30826        0.63005
C         -1.74406       -0.96708       -0.30388
C         -2.35881       -2.19730       -0.72835
N         -2.85251       -3.15923       -1.09953
C         -2.06717        0.36883       -0.40978
N         -3.07256        0.53838       -0.84227
C         -1.25487        1.39840        0.20825
C         -1.84867        2.66314        0.49241
C         -0.89806        3.51232        0.93292
C          0.25537        2.86003        0.90501
C          0.10674        1.56645        0.45768
C          1.25823        0.81902       -0.04446
C          2.43875        1.46754       -0.24499
C          3.08358        0.31390       -0.60003
N          4.15436        0.45320       -0.84199
C          2.63674       -0.97650       -0.68150
C          1.39580       -0.59770       -0.26038
H         -1.09936       -1.52576        1.65820
H         -3.28750        1.48784       -1.14050
H         -3.86567       -0.04348       -1.10703
H         -2.89704        2.91151        0.36031
H         -1.05211        4.53740        1.26068
H          1.19750        3.29783        1.22775
H          2.47873        2.34880       -0.88273
H          4.82369       -0.30931       -0.92674
H          4.66566        1.31441       -1.02442
H          3.17243       -1.78573       -0.18782
