29
Coordinates from ORCA-job ./opt_b97-3c_parallel
N          0.41129        3.18226        0.54831
C          0.16399        2.10499        0.51576
C         -1.07909        1.96730       -0.18778
C         -1.68905        0.67468       -0.05981
N         -3.03494        0.53576       -0.27561
C         -3.33811       -0.78233        0.01683
N         -4.38081       -1.12183       -0.10662
N         -2.17972       -1.22991        0.41542
C         -1.10926       -0.50207        0.33257
C          0.27748       -0.91483        0.43567
C          0.59951       -2.25786        0.78771
C          1.92102       -2.61224        0.69864
C          2.43224       -1.44063        0.18577
N          3.51857       -1.47298       -0.01829
C          1.48003       -0.37843        0.05120
C          1.90037        0.88790       -0.51876
N          2.76904        1.39833       -0.97533
N          1.24018        2.03756       -0.27752
H         -0.26282        3.55183        1.21897
H          1.14363        3.89059        0.48277
H         -1.69013        2.82592       -0.46835
H         -5.24547       -0.58067       -0.13986
H         -4.66193       -2.09687       -0.21589
H         -0.16425       -2.97537        1.07291
H          2.20750       -3.58996        0.31001
H          3.75077       -2.39388       -0.39483
H          4.23649       -1.27863        0.68192
H          3.36252        0.56669       -0.92154
H          3.31784        2.09514       -1.48147
