28
Coordinates from ORCA-job ./opt_b97-3c_parallel
N         -2.77727        0.57342        2.48010
C         -2.16874        0.15504        1.60877
C         -1.71323        0.29260        0.61141
C         -1.48905        1.33859       -0.22625
N         -2.10178        2.09498       -0.75397
N         -0.48931        2.14176       -0.62049
C          0.81325        1.98810       -0.29683
N          0.96985        3.04529       -0.59262
C          1.43153        0.80897        0.29973
C          2.79564        0.89784        0.72097
N          3.22225       -0.35891        0.94396
C          2.29942       -1.30050        0.69246
N          2.90562       -2.20298        0.89974
C          1.11185       -0.59741        0.29195
C         -0.02366       -1.33073       -0.24381
C          0.08543       -2.63136       -0.64127
C         -1.24698       -2.85466       -0.80917
N         -1.30384       -1.77379       -0.60638
C         -1.34257       -0.76444       -0.16462
H         -2.45225        3.04241       -0.60926
H         -2.93132        1.50481       -0.82508
H          1.18617        3.24715       -1.57260
H          0.68682        3.94589       -0.19901
H          3.75088        1.40193        0.93636
H          3.84412       -2.45157        1.22032
H          2.38657       -3.08330        0.89914
H          0.79655       -2.93744       -1.40995
H         -1.83388       -3.66961       -1.26215
