29
Coordinates from ORCA-job ./opt_b97-3c_parallel
N         -1.65629       -4.72447       -0.99741
C         -1.21921       -3.74273       -0.60936
C         -0.62734       -2.53791       -0.11228
C         -1.16039       -1.81356        0.99337
N         -2.24460       -1.05782        0.66522
C         -1.89004        0.20527        0.22713
C         -2.84133        1.17458        0.03026
C         -4.26783        1.22804        0.10398
N         -5.35716        0.88070        0.10683
C         -2.30202        2.41008       -0.23188
C         -0.95448        2.17486       -0.15250
C         -0.11203        3.25574       -0.56375
N          0.53663        4.12812       -0.91502
C         -0.59729        0.81111        0.12151
C          0.76462        0.26532        0.19091
C          1.88386        1.13729        0.38667
C          3.08210        0.36446        0.25066
C          4.35661        0.99796        0.40622
N          5.38249        1.47971        0.55300
C          2.72498       -0.93665       -0.04018
N          3.48169       -1.72554       -0.20931
C          1.29016       -0.99944       -0.03000
C          0.68424       -2.26449       -0.39730
H         -2.14076       -2.26417        1.21516
H         -2.71605        3.05155       -1.00889
H          1.86681        2.19271        0.62550
H          3.28194       -2.69287        0.03813
H          4.47449       -1.57535       -0.03691
H          1.29389       -3.02152       -0.88270
