27
Coordinates from ORCA-job ./opt_b97-3c_parallel
N         -3.28150        2.09997        1.45067
C         -2.39136        1.68930        0.86093
C         -1.24344        1.17149        0.17299
C         -0.43796        2.24278       -0.18236
C          0.60563        2.21484       -1.17000
C          1.81499        1.57242       -1.01002
C          2.13991        0.43881       -0.18689
C          3.43789        0.09753        0.07270
N          4.47480        0.46967       -0.01640
N          3.58863       -1.13490        0.57932
C          2.30428       -1.67378        0.61558
C          1.36186       -0.69882        0.14515
C          0.03402       -0.98148       -0.07497
C         -0.47464       -2.31645       -0.02826
C         -1.82931       -2.48525       -0.13828
C         -2.17056       -1.15866       -0.17491
C         -3.55379       -0.85286       -0.38023
N         -4.64882       -0.59803       -0.58880
C         -1.07928       -0.21911       -0.18234
H         -0.84688        3.24039       -0.02829
H          0.68933        3.13740       -1.73809
H          2.66921        2.03586       -1.49454
H          5.41851        0.19967        0.26002
H          4.51118        1.47278       -0.19560
H          2.30307       -2.71557        0.97084
H          0.17798       -3.17581        0.10084
H         -2.25970       -3.20976       -0.82745
