33
Coordinates from ORCA-job ./opt_b97-3c_parallel
N          3.53260       -3.27641       -0.38527
C          2.86765       -2.37762       -0.14757
C          2.06103       -1.22214        0.12261
C          2.62951       -0.08575        0.79338
N          3.61067        0.20800        1.21090
C          1.86172        0.98262        1.14870
C          1.28327        1.83916        0.25714
C          1.72212        3.14345       -0.07858
C          0.60654        3.77023       -0.72847
N         -0.47907        2.90111       -0.75716
C         -0.00912        1.78294       -0.18811
C         -0.89435        0.64746        0.00274
C         -2.25844        0.65050       -0.04319
N         -3.02309        1.44113       -0.16878
C         -2.54366       -0.75178        0.13847
C         -3.87240       -1.29180        0.15016
N         -4.91892       -1.75221        0.16259
C         -1.48782       -1.62254        0.31423
N         -1.40657       -2.85771        0.84155
C         -0.47578       -0.71761        0.10082
C          0.74840       -1.21726       -0.26623
N          0.57988       -1.41502       -1.59130
H          4.12821       -0.66007        1.08195
H          3.99312        0.65876        2.04021
H          1.50374        1.03527        2.17750
H          2.66805        3.60601        0.18478
H          0.32863        4.74025       -1.16697
H         -3.99102        1.72058       -0.31478
H         -2.43898        2.20567       -0.50562
H         -0.62000       -3.46071        0.60898
H         -2.24062       -3.43982        0.89447
H         -0.34435       -1.64857       -1.94994
H          1.25432       -1.98185       -2.10279
