29
Coordinates from ORCA-job ./opt_b97-3c_parallel
N          2.37569        3.96206       -1.33755
C          1.85016        3.05123       -0.89553
C          1.23678        1.90284       -0.29545
C         -0.13545        1.97190       -0.49396
C         -1.07108        0.95730       -0.05327
C         -2.42453        1.12329       -0.03402
N         -2.99153        2.04679       -0.24293
C         -2.86848       -0.19865        0.31681
C         -4.24428       -0.56866        0.45174
N         -5.33297       -0.89846        0.54568
C         -1.92516       -1.18243        0.49637
C         -0.82276       -0.42208        0.21298
C          0.32836       -1.13307        0.05361
N          0.84275       -2.31030       -0.22625
C          1.89908       -3.18119       -0.36413
N          2.09810       -4.23310       -0.63736
N          2.53129       -2.02987        0.07441
C          1.66187       -0.96753        0.25781
N          2.43191        0.07983        0.75323
C          1.78204        1.30192        0.90627
N          2.75175        1.53170        1.40062
H         -0.56716        2.83713       -0.99986
H         -3.94023        1.71796       -0.42998
H         -3.07315        3.05363       -0.10319
H         -2.07261       -2.16764        0.05509
H          3.01374       -4.66981       -0.76267
H          1.42440       -4.98996       -0.77159
H          2.57746        2.54071        1.35807
H          3.59548        1.45937        1.97682
