28
Coordinates from ORCA-job ./opt_b97-3c_parallel
N          3.71368       -2.47973        0.49426
C          2.70291       -1.97948        0.31851
C          1.45889       -1.29750        0.09900
C          1.45218        0.16008        0.00746
C          2.61298        0.88465       -0.00341
C          2.21351        2.20119       -0.04549
N          2.83418        3.11689       -0.06260
N          0.86822        2.27879       -0.03507
C          0.32945        1.06034       -0.00701
C         -1.11506        0.89309        0.09217
C         -1.96872        2.04391        0.15272
N         -3.20634        1.56291        0.25652
C         -3.14141        0.23172        0.26315
N         -4.19737       -0.09169        0.34320
C         -1.82747       -0.36349        0.16609
C         -1.63112       -1.31474       -0.89138
N         -0.82135       -1.87115       -0.37047
C          0.24322       -2.04590       -0.10591
N          0.13140       -3.14719       -0.02758
H          3.47497        0.54873       -0.57987
H          2.69066        4.11931        0.06985
H          3.84084        3.01193       -0.20408
H         -2.17481        3.12575        0.16611
H         -5.09788        0.38699        0.40412
H         -4.42362       -1.08792        0.33631
H         -2.03795       -2.01123       -1.64167
H          0.89730       -3.55713        0.50679
H         -0.35933       -3.93045       -0.45841
