31
Coordinates from ORCA-job ./opt_b97-3c_parallel
N         -1.60726       -2.41044        2.02184
C         -1.39479       -1.54105        1.30823
C         -1.31534       -1.18816        0.24880
C         -2.49554       -0.83483       -0.36562
N         -3.37335       -1.44198       -0.68051
C         -2.83062        0.52803       -0.71591
C         -1.79767        1.49308       -0.42241
N         -1.88353        2.11088       -1.33848
C         -0.67699        1.88017        0.40864
C         -0.51664        3.21360        0.88879
N          0.48934        2.73809        1.05659
C          1.45897        2.16825        1.04269
C          0.51688        1.25006        0.49514
C          0.89575       -0.07463        0.05409
C          2.17846       -0.51744       -0.09277
C          3.50267        0.01811        0.01961
N          4.44215        0.63124       -0.20599
C          1.94172       -1.88151       -0.46050
N          2.63956       -2.70718       -0.70053
C          0.64437       -2.32160       -0.57134
C         -0.00320       -1.17425       -0.16725
H         -3.34223       -2.20683       -0.00825
H         -4.21683       -0.91144       -0.46887
H         -3.80317        0.77626       -1.15448
H         -2.79775        2.35389       -1.71665
H         -1.34626        2.97587       -1.31136
H         -1.08825        4.15314        0.91714
H          2.49247        2.37943        1.35539
H          2.80982       -3.69200       -0.50616
H          3.54627       -2.24325       -0.66399
H          0.33449       -3.29731       -0.19551
