23
Coordinates from ORCA-job ./opt_b97-3c_parallel
C         -0.39341       -2.12739       -0.77898
C          0.44545       -2.39437        0.25134
C          1.51538       -1.55518        0.44267
C          1.68703       -0.29556       -0.11760
C          2.97931        0.13372       -0.17857
C          2.57303        1.40987       -0.42042
N          1.53809        1.30586       -0.77987
C          0.67658        0.67050       -0.51659
C         -0.74062        0.73331       -0.20084
C         -1.45302        1.89147       -0.14749
C         -2.67755        1.59817        0.28052
C         -2.83327        0.29857        0.50493
C         -1.65698       -0.29754        0.18126
C         -1.46148       -1.68801       -0.07493
H         -0.51635       -2.83288       -1.59832
H          0.44332       -3.37909        0.71034
H          2.35551       -1.98953        0.97702
H          3.69305       -0.07897        0.61436
H          3.07831        2.35819       -0.18214
H         -1.08190        2.88224       -0.39859
H         -3.46148        2.33761        0.42683
H         -3.73887       -0.19554        0.84860
H         -2.28880       -2.35503        0.14966
