27
Coordinates from ORCA-job ./opt_b97-3c_parallel
N          4.86043        1.11121        1.19822
C          3.77600        0.91673        0.89101
C          2.42242        0.69909        0.46862
C          2.13531        1.71657       -0.39257
C          1.03868        2.45198       -0.29734
C          0.07570        2.24397        0.64146
C         -0.85448        1.16739        0.47033
C         -2.23810        1.42474        0.65639
C         -2.93833        0.24700        0.23301
C         -4.37291        0.27044        0.26963
N         -5.51569        0.29927        0.26510
C         -1.99387       -0.70668       -0.13614
N         -2.44860       -1.66905       -0.43660
C         -0.68533       -0.11895        0.02747
C          0.53028       -0.92486        0.02448
C          0.48481       -2.34800       -0.03452
C          1.79525       -2.78452        0.34081
N          2.58616       -1.72963        0.60582
C          1.81312       -0.60191        0.39072
H          2.82787        1.93682       -1.20441
H          0.88091        3.24531       -1.02333
H         -0.32657        3.12593        1.13046
H         -2.68602        2.36209        0.97215
H         -3.43611       -1.86224       -0.59695
H         -1.93363       -2.11763       -1.19155
H         -0.35825       -2.99973       -0.22472
H          2.23843       -3.78251        0.47476
