30
Coordinates from ORCA-job ./opt_b97-3c_parallel
N          5.66024       -0.29918       -0.18638
C          4.51992       -0.26563       -0.14478
C          3.09497       -0.17929       -0.09590
C          2.40247        1.00520       -0.08290
C          1.09418        0.58459        0.00238
C         -0.02796        1.50191        0.11229
C          0.11826        2.82754        0.39892
C         -1.18538        3.26018        0.36173
N         -1.66536        4.24364        0.53022
N         -2.08508        2.29154       -0.05841
C         -1.36758        1.13495       -0.23226
N         -1.77331        0.02949       -0.77658
C         -1.99138       -1.24704       -0.84765
N         -2.86418       -1.09020       -1.50501
C         -1.17547       -2.19599       -0.13913
C         -1.48317       -3.59172       -0.14866
N         -1.76730       -4.69764       -0.13497
C         -0.09090       -1.57228        0.58073
N         -0.16693       -1.49881        1.68263
C          1.02933       -0.79106        0.10743
C          2.27238       -1.33202        0.04120
H          2.69434        1.82158       -0.74183
H          0.79219        3.15112        1.19082
H         -1.13302        5.08899        0.74513
H         -2.64375        4.53864        0.53256
H         -2.92619       -2.10718       -1.45526
H         -3.44768       -0.81319       -2.29405
H          0.76265       -1.52740        2.10366
H         -0.66595       -2.29910        2.07448
H          2.60482       -2.35944        0.15746
