27
Coordinates from ORCA-job ./opt_b97-3c_parallel
N          4.16981       -1.17485        0.37436
C          3.12291       -0.82293        0.26873
C          1.83027       -1.28658        0.13617
C          0.99822       -0.19470        0.09371
C         -0.47723       -0.30008       -0.02604
C         -0.96867       -1.56646       -0.24766
N         -1.03132       -2.66287       -0.43589
N         -2.29569       -1.64088       -0.13262
C         -2.70195       -0.34481        0.17161
N         -3.79254       -0.47984        0.34266
C         -1.60866        0.49965        0.09566
C         -1.86529        1.81105       -0.03247
C         -1.05356        2.84949       -0.16389
C          0.27772        2.69698       -0.04487
N          1.52086        2.27549        0.09194
C          1.82583        0.97971        0.19134
N          3.13041        0.56274        0.29319
H          4.57221       -2.09207        0.16190
H          4.96819       -0.63408        0.72037
H          1.54053       -2.19457        0.66256
H         -1.04140       -2.99556       -1.40587
H         -1.24205       -3.50328        0.11306
H         -4.26402        0.25181        0.88227
H         -4.55354       -1.11343        0.08068
H         -2.91814        2.09161       -0.02858
H         -1.47167        3.85060       -0.26197
H          0.69801        3.71542       -0.07410
