24
Coordinates from ORCA-job ./opt_b97-3c_parallel
N          2.08356        2.17571        0.75362
C          1.87532        0.94499        0.25188
C          2.88957        0.20481       -0.18049
C          2.52903       -1.00725       -0.56228
C          1.19932       -1.11537       -0.33274
C          0.52450       -2.38278       -0.41916
C         -0.42520       -2.80247        0.45700
C         -1.52685       -2.05833        0.27946
N         -2.33426       -1.04368        0.04066
C         -1.89188        0.19308       -0.20024
N         -2.78442        1.20243       -0.43778
C         -2.03438        2.35969       -0.48409
C         -0.71055        2.14508       -0.22336
C         -0.58530        0.78728       -0.08266
C          0.73910        0.17791        0.13347
H          1.44610        2.57959        1.43591
H          3.02818        2.47687        0.99247
H          3.92357        0.54987       -0.19991
H          3.19586       -1.79045       -0.91801
H          1.11466       -3.16241       -0.89297
H         -0.52790       -3.87074        0.64437
H         -2.38373       -2.70356        0.52615
H         -2.65680        3.23735       -0.72080
H          0.03462        2.72612       -0.76635
