24
Coordinates from ORCA-job ./opt_b97-3c_parallel
N         -4.24127        0.11297       -0.09470
C         -3.15078        0.45201       -0.06142
C         -1.77120        0.83226        0.00727
C         -2.08141        2.12894        0.29883
N         -0.87183        2.55449        0.58933
C         -0.18255        1.37809        0.40175
N          1.07623        1.90875        0.58193
C          2.04327        0.97632        0.27626
N          2.94469        1.59059        0.46428
N          2.85050       -0.08212       -0.06406
C          2.32699       -1.34136       -0.34953
C          0.97790       -1.86599       -0.22921
C          0.71233       -3.19422       -0.33434
C         -0.58443       -3.35677       -0.12851
C         -1.19936       -2.20354        0.09000
C         -0.27930       -1.19764        0.02025
C         -0.59341        0.13371        0.03246
H         -2.77269        2.98489        0.37280
H          3.78420        1.25467        0.94277
H          3.14215        2.57024        0.25372
H          3.16834       -2.01981       -0.56296
H          1.43204       -3.98633       -0.53314
H         -1.08549       -4.32362       -0.13393
H         -2.26130       -2.10129        0.29927
