28
Coordinates from ORCA-job ./opt_b97-3c_parallel
N          4.81777       -0.70627       -1.38927
C          3.70399       -0.53279       -1.19699
C          2.41410       -0.50097       -0.56126
C          2.11774       -1.77694       -0.09850
C          0.96103       -2.32563        0.58559
C         -0.37737       -1.91675        0.61324
N         -0.93766       -2.81661        0.93748
C         -1.08884       -0.79649        0.19591
C         -2.43400       -0.72811       -0.07195
N         -3.33887       -1.36240       -0.12039
C         -2.61271        0.64984       -0.39717
C         -3.71059        1.48134       -0.80270
N         -4.81131        1.79111       -0.83875
C         -1.51597        1.46506       -0.35536
C         -0.59894        0.54112        0.09914
C          0.61977        0.92156        0.57685
N          0.68300        2.08525        1.20504
C          1.81606        2.60659        0.73301
N          2.48220        1.80400       -0.15015
C          1.73390        0.69697       -0.15985
H          2.88797       -2.54042       -0.19709
H          1.21589       -3.33203        0.93163
H         -1.90240       -2.55514        1.13794
H         -0.85110       -3.80600        1.16198
H         -4.26734       -1.12103       -0.46390
H         -2.98944       -2.11901       -0.70555
H         -1.57630        2.46557        0.07324
H          2.47454        3.48807        0.76498
