29
Coordinates from ORCA-job ./opt_b97-3c_parallel
N         -1.42389        2.86775       -0.98139
C         -1.29060        1.81250       -0.66020
C         -2.05721        1.52873        0.51554
C         -2.35723        0.13514        0.68744
N         -3.31444        0.03633        1.22665
C         -1.50646       -0.87657        0.09802
C         -1.90391       -2.24740        0.08341
C         -0.93285       -3.13758       -0.28778
C          0.16983       -2.31550       -0.35427
N          1.03568       -2.99497       -0.48658
C         -0.10358       -0.91487       -0.18854
C          0.97272        0.05598       -0.02441
N          2.27390       -0.37244        0.13085
C          3.08057        0.73982        0.30887
N          4.16446        0.58212        0.45824
N          2.27798        1.87235        0.21357
C          0.97010        1.48923        0.00374
N         -0.06299        2.35189       -0.36242
H         -2.42753        2.73785       -1.13996
H         -1.23217        3.79404       -1.37359
H         -2.67410        2.30000        0.98635
H         -4.18884        0.46927        1.52848
H         -3.39861       -0.94706        1.48734
H         -2.90340       -2.54762        0.38488
H         -1.14784       -3.89706       -1.04188
H          2.05258       -2.99835       -0.43939
H          0.77791       -3.97700       -0.60107
H          4.66023       -0.30831        0.53813
H          4.88979        1.29710        0.54014
