23
Coordinates from ORCA-job ./opt_b97-3c_parallel
N          3.84443        0.32622        0.08771
C          2.60734       -0.18785        0.14128
C          2.29077       -1.51098        0.32784
C          1.02445       -2.03661        0.25222
C          0.39424       -0.85060        0.04883
C         -1.02593       -0.76012       -0.24924
C         -1.80138       -1.84217       -0.48885
C         -3.09328       -1.55430       -0.37052
N         -3.19103       -0.28004       -0.00935
C         -1.94027        0.30193        0.07387
N         -1.73704        1.55936        0.63144
C         -0.57217        2.23684        0.38321
N          0.65064        2.44691       -0.19180
C          0.99846        1.32250       -0.89117
C          1.32572        0.21651       -0.04361
H          4.01428        1.22840       -0.35357
H          4.64365       -0.27467       -0.10933
H          3.10008       -2.19603        0.56455
H          0.67509       -2.73784        1.00708
H         -1.42310       -2.82213       -0.77291
H         -4.00983       -2.15162       -0.49573
H         -0.67250        3.19926        0.90909
H          1.86380        1.95918       -1.13599
