25
Coordinates from ORCA-job ./opt_b97-3c_parallel
N         -1.83599        2.18217       -1.04874
C         -1.35480        1.29998       -0.57780
N         -0.43221        2.30988       -0.34117
C          0.43476        2.09181        0.66149
C          1.74262        1.74108        0.45607
C          2.07118        0.44551       -0.07305
N          3.31805        0.12041       -0.29037
C          3.29923       -1.16054       -0.43819
C          2.11573       -1.71270       -0.34358
C          1.26391       -0.68882       -0.12477
C         -0.14465       -0.81413        0.19550
C         -0.68516       -2.08872        0.49875
N         -2.07050       -2.05540        0.59111
C         -2.42660       -0.78172        0.29348
N         -3.51555       -0.98514        0.35387
C         -1.23962        0.00217        0.05583
H         -2.14371        3.15674       -0.97185
H         -1.83747        1.99102       -2.05367
H          0.82817        3.08014        0.95017
H          2.58163        2.39202        0.70859
H          4.33217       -1.49383       -0.62586
H          1.88305       -2.76807       -0.46982
H         -0.33285       -3.11903        0.66819
H         -4.19706       -0.38893        0.83098
H         -4.00119       -1.87903        0.24162
