32
Coordinates from ORCA-job ./opt_b97-3c_parallel
N         -5.85735       -0.54708        0.28939
C         -4.75813       -0.24521        0.21850
C         -3.38993        0.14686        0.09334
C         -2.93511        1.39443       -0.18470
C         -1.56530        1.25461       -0.13645
C         -0.81606        2.43079       -0.49319
C          0.49217        2.81722       -0.23532
C          0.53616        4.21381       -0.60668
N          0.58924        5.35538       -0.55861
C          1.58414        2.22113        0.50946
N          2.44620        2.84420        0.83071
C          1.97970        0.91152        0.73390
C          1.37480       -0.31221        0.27926
C          2.14660       -1.52392        0.24998
C          3.56179       -1.60537        0.47936
N          4.69204       -1.64168        0.64838
C          1.48132       -2.67367       -0.08964
N          1.89396       -3.94983        0.05485
C          0.22741       -2.13362       -0.24516
C         -0.70973       -3.04109       -0.84645
N         -1.43103       -3.78528       -1.32720
C          0.04737       -0.71613       -0.00877
C         -1.17844       -0.06450        0.03562
C         -2.33403       -0.77744        0.22568
H         -3.42893        2.26930        0.23303
H         -1.49711        3.18763       -0.88781
H          3.44220        2.65588        0.93280
H          2.35520        3.85101        0.70067
H          2.96152        0.73415        1.17873
H          1.37822       -4.70767       -0.38954
H          2.88669       -4.17441        0.01118
H         -2.48947       -1.82329        0.46112
