26
Coordinates from ORCA-job ./opt_b97-3c_parallel
N         -5.19369        0.05530       -0.39966
C         -4.06291       -0.07311       -0.29069
C         -2.64921       -0.26895       -0.12940
C         -2.21650       -1.61761        0.11208
C         -0.93467       -2.23752        0.24213
C          0.39144       -1.71108        0.15041
C          1.45681       -2.66018        0.16273
C          2.72389       -2.16260        0.06869
C          2.41473       -0.82991       -0.01564
C          3.57556       -0.06314       -0.35913
N          4.51766        0.51510       -0.64983
C          1.02079       -0.44694        0.06911
C          0.51374        0.91066        0.07654
C          1.41700        2.01173        0.24893
C          0.72407        3.16583        0.20789
C         -0.54588        2.85547        0.03773
C         -0.73691        1.49855       -0.01455
C         -2.07427        0.99346       -0.17801
H         -3.02899       -2.33803        0.15676
H         -0.99172       -3.31592        0.35668
H          1.24869       -3.72407        0.22418
H          3.45605       -2.62859       -0.58825
H          2.46280        1.94956        0.50534
H          1.13860        4.16784        0.28627
H         -1.34079        3.59473       -0.03500
H         -2.76248        1.82875       -0.31370
