31
Coordinates from ORCA-job ./opt_b97-3c_parallel
N         -4.45689        1.89396       -0.31694
C         -3.57477        1.16706       -0.31102
C         -2.48022        0.24474       -0.26362
C         -2.42785       -1.12602       -0.39431
N         -3.21752       -1.87616       -0.57992
C         -1.18228       -1.68096       -0.20494
C         -0.38248       -0.59545        0.03764
C          1.05864       -0.69926        0.24634
C          1.68635       -1.98204        0.39269
N          1.46429       -3.05810        0.51045
C          3.03848       -1.81570        0.28702
C          3.32203       -0.54247        0.04545
C          2.17709        0.19642        0.02783
C          2.09473        1.53049       -0.53094
N          2.87370        2.06190       -1.10804
C          1.14940        2.44813       -0.11711
C          0.45331        2.15775        1.01223
C         -0.75685        1.92741        0.45465
C         -1.14028        0.61295        0.03272
H         -3.36399       -2.78587       -1.01319
H         -4.13926       -1.47894       -0.40592
H         -0.83108       -2.47953       -0.85793
H          1.76814       -3.84256        1.08356
H          0.54451       -2.78177        0.84802
H          3.79371       -2.59849        0.37068
H          4.32655       -0.14447       -0.07531
H          3.49760        1.32152       -1.42292
H          3.45864        2.80755       -0.73657
H          1.12371        3.46951       -0.49984
H          0.55087        2.77626        1.90066
H         -1.50855        2.71080        0.44547
