28
Coordinates from ORCA-job ./opt_b97-3c_parallel
N          4.84387        0.69372        1.33086
C          3.80017        0.49662        0.90987
C          2.49254        0.28530        0.35874
C          2.36339       -0.52098       -0.82234
C          1.40573       -1.50537       -0.84188
C          0.12039       -1.40895       -0.20444
C         -0.62787       -2.54808       -0.04210
C         -0.48402       -3.95440       -0.25045
N         -0.34864       -5.07229       -0.44724
C         -1.90190       -2.28237        0.40492
C         -1.92745       -0.91366        0.35278
C         -3.11411       -0.22004        0.74244
N         -4.03672        0.38655        1.03527
C         -0.66782       -0.32120        0.01760
C         -0.48146        1.08288       -0.29562
C         -1.48216        1.97566       -0.58866
N         -2.46919        2.42675       -0.81093
N         -1.06884        3.25062       -0.66941
C          0.29666        3.22090       -0.38864
C          0.70402        1.86229       -0.19139
C          1.95404        1.55724        0.29278
H          3.30811       -0.79327       -1.28696
H          1.66885       -2.45147       -1.30708
H         -2.32717       -2.81814        1.25320
H         -3.05636        3.16081       -1.20890
H         -3.11130        1.66811       -0.57716
H          0.89151        4.14526       -0.32463
H          2.52782        2.41598        0.64655
