29
Coordinates from ORCA-job ./opt_b97-3c_parallel
N         -4.28689        1.70929        0.23060
C         -3.10337        1.09153        0.11598
C         -2.93759       -0.22615        0.07134
C         -1.61559       -0.57807        0.02755
C         -1.23095       -1.96967       -0.03335
C          0.13871       -2.37004        0.10021
N          0.19719       -3.47944        0.05355
N          1.22103       -2.22712        0.24027
C          1.70286       -1.24058        0.15716
C          1.62741        0.17172        0.00720
C          2.80552        0.96935       -0.05339
N          3.89907        0.82552       -0.01879
C          2.36190        2.24673       -0.19244
C          1.03262        2.25502       -0.19389
C          0.52685        0.98810       -0.06693
C         -0.87378        0.59839        0.01344
C         -1.85873        1.62377        0.05919
H         -4.38169        2.69654        0.00193
H         -5.14942        1.23108       -0.02092
H         -3.75636       -0.94191        0.11566
H         -2.02153       -2.71439       -0.11405
H          0.98151       -4.12865        0.07820
H         -0.44745       -3.83006       -0.65150
H          2.68587       -1.72782        0.24599
H          4.19325       -0.14784       -0.06152
H          4.73206        1.39630       -0.14662
H          2.98704        3.12982       -0.31564
H          0.44198        3.15605       -0.33260
H         -1.65178        2.68823        0.07138
