31
Coordinates from ORCA-job ./opt_b97-3c_parallel
N          5.32595       -0.53743        0.54414
C          4.28324       -0.15052        0.28045
C          2.96875        0.33972       -0.01047
C          2.58039        1.61792       -0.34263
N          3.12879        2.56788       -0.47244
C          1.22625        1.77837       -0.49777
C          0.73540        0.52104       -0.27545
C         -0.67557        0.26153       -0.11036
C         -1.67095        1.26433        0.13754
N         -1.59079        2.35176        0.32484
C         -2.93137        0.54764        0.12447
C         -4.21940        1.14879        0.32835
N         -5.24363        1.61806        0.52180
C         -2.72862       -0.84640       -0.20340
N         -3.50088       -1.61808       -0.38084
C         -1.30850       -0.97869       -0.30279
C         -0.65118       -2.05225       -0.96782
N         -0.29732       -3.04772       -0.10551
C          0.82441       -2.77538        0.57701
C          1.79882       -1.79105        0.57058
C          1.77181       -0.43961        0.01634
H          4.11251        2.30333       -0.46235
H          3.05702        3.41523       -1.03273
H          0.81703        2.38572       -1.30536
H         -2.29080        2.94274        0.76972
H         -0.68548        2.62364        0.70327
H         -3.43370       -2.60975       -0.15810
H         -4.47454       -1.34859       -0.25103
H         -1.34897       -2.86869       -1.20706
H          0.97811       -3.74034        1.08271
H          2.73577       -2.07518        1.03583
