32
Coordinates from ORCA-job ./opt_b97-3c_parallel
N          4.84139       -2.15300        0.57935
C          3.82904       -1.64911        0.41424
C          2.55906       -1.03410        0.16394
C          1.35742       -1.61416        0.68981
C          0.04263       -1.17520        0.25531
C         -1.00764       -2.15129        0.32257
N         -0.95249       -3.20763        0.65517
C         -2.17785       -1.48059       -0.19130
C         -3.42726       -2.19722       -0.29972
N         -4.42113       -2.76192       -0.35116
C         -1.85360       -0.16215       -0.48689
N         -2.71772        0.39579       -0.89223
C         -0.46554        0.04673       -0.15853
C          0.10329        1.40370       -0.06261
C         -0.64873        2.55596        0.07168
C         -1.99137        3.04770        0.08451
N         -3.05068        3.47816        0.08494
C          0.31335        3.56166        0.39768
N          1.59324        3.05663        0.43869
C          1.48919        1.76360        0.12275
C          2.58492        0.97722       -0.13750
C          2.35511       -0.17059       -0.96182
N          2.59924       -0.07272       -2.03413
H          1.46317       -2.54878        1.23274
H         -1.86732       -3.64358        0.76019
H         -0.50620       -3.23457        1.56974
H         -2.70705        1.25855       -1.43302
H         -3.69153        0.10013       -0.83803
H          0.22430        4.63361        0.62995
H          3.58657        1.37142        0.02018
H          2.99747        0.82577       -2.30320
H          3.32720       -0.77103       -2.17518
