25
Coordinates from ORCA-job ./opt_b97-3c_parallel
N          2.98311        1.29630        1.15319
C          2.27932        0.84354        0.43827
C          2.02664       -0.11470       -0.49861
C          1.19984       -1.16684       -0.23350
N          1.51586       -2.50544       -0.07532
C          0.42671       -3.23396        0.15798
C         -0.61922       -2.41385        0.16027
C         -0.21436       -1.14908       -0.07465
C         -1.03299        0.04403       -0.15936
C         -2.44793       -0.06209        0.04219
N         -3.43386       -0.51376        0.24172
N         -2.47567        1.02705       -0.12349
C         -1.83487        1.88752       -0.38031
C         -0.50341        1.35512       -0.42283
C          0.44039        2.39474       -0.11805
N          1.56914        1.91883        0.30490
H          3.36581        2.18901        1.45761
H          3.59941        0.56787        1.50751
H          2.58444       -0.10341       -1.43193
H          0.44803       -4.32291        0.31124
H         -1.64725       -2.72746        0.31957
H         -2.81223       -0.64349        1.03717
H         -4.19777        0.08110        0.55568
H         -2.36541        2.72190       -0.86299
H          0.71935        3.07108       -0.93971
