33
Coordinates from ORCA-job ./opt_b97-3c_parallel
N          5.21360       -0.66056       -0.32822
C          4.20109       -0.20840       -0.05816
C          2.91637        0.34315        0.23947
C          2.79131        1.62424        0.85453
C          1.52582        2.12657        0.99835
C          0.81653        1.09469        0.43771
C         -0.48228        1.25735       -0.16916
C         -0.93950        2.51575       -0.47728
N         -0.76987        3.60405       -0.59049
N         -2.30235        2.42118       -0.73289
C         -2.69844        1.10472       -0.52087
N         -3.79868        1.14479       -0.64197
C         -1.51292        0.35920       -0.18124
C         -1.59184       -0.90429        0.52667
N         -2.55195       -1.01936        1.08437
C         -0.70483       -1.93689        0.22869
C         -1.03703       -3.26664        0.70063
N         -1.38203       -4.04936        1.45840
C          0.24272       -1.90240       -0.78928
N          0.54321       -2.73833       -1.45722
C          1.30761       -1.02352       -0.95576
C          1.61903       -0.01958        0.02978
H          3.68265        2.18278        1.12499
H          1.21934        2.57039        1.94297
H         -1.08219        4.54401       -0.84129
H          0.22342        3.69994       -0.37074
H         -3.91524        0.16883       -0.35756
H         -4.72746        1.45896       -0.92810
H         -2.67746       -2.03023        1.17037
H         -2.79992       -0.64737        2.00228
H         -0.03046       -3.57480       -1.35519
H          1.30241       -2.99836       -2.08670
H          2.15058       -1.26756       -1.61603
