32
Coordinates from ORCA-job ./opt_b97-3c_parallel
N         -1.20835        1.74372       -2.44953
C         -0.72821        1.41387       -1.46459
C         -0.64550        1.28533       -0.35849
C         -0.07708        2.28124        0.39238
N         -0.46930        3.28949        0.64110
C          1.20061        2.09808        1.03034
C          1.81824        0.88438        1.04709
C          2.16355        0.02875        0.03831
C          3.50405       -0.28366       -0.34562
N          4.48478        0.15236       -0.09213
C          3.47257       -1.48162       -0.98731
C          2.22862       -1.93859       -0.98471
C          1.39105       -1.02687       -0.41230
C         -0.00735       -1.19754       -0.08614
C         -0.66731       -2.39322       -0.01479
C         -1.94660       -1.94758        0.24036
N         -2.61714       -2.81911        0.35886
C         -2.07023       -0.57456        0.21003
C         -3.32991        0.09356        0.34993
N         -4.34779        0.60005        0.46713
C         -0.83987       -0.03504       -0.03239
H          0.11846        4.11973        0.68764
H         -1.23439        3.50505        0.00426
H          1.62885        2.91600        1.60823
H          2.09925        0.54017        2.03890
H          5.41685       -0.24659       -0.18496
H          4.60188        1.13419        0.14990
H          4.33109       -2.01035       -1.39895
H          1.91549       -2.88611       -1.41682
H         -0.22505       -3.22528        0.53316
H         -3.57312       -2.46989        0.31173
H         -2.65623       -3.81481        0.15046
