31
Coordinates from ORCA-job ./opt_b97-3c_parallel
N          3.30795        3.29458       -0.99188
C          2.52033        2.56287       -0.60478
C          1.55764        1.60998       -0.12496
C          0.88852        1.95347        1.10130
C         -0.52850        1.77375        1.25515
C         -1.31353        1.42386        0.10157
N         -2.46403        1.98605       -0.08729
C         -3.16187        0.96291       -0.49441
N         -4.21653        1.24940       -0.68592
C         -2.66262       -0.31373       -0.59855
C         -1.40908        0.03377       -0.18991
C         -0.40425       -0.91821        0.23958
C         -0.71923       -2.30413        0.40349
N         -1.50865       -3.07133        0.46093
N          0.45270       -2.95819        0.46702
C          1.52022       -2.16056        0.29361
N          2.35933       -2.88279        0.30813
C          1.01961       -0.81380        0.11825
C          1.76024        0.25242       -0.38456
N          2.62959       -0.12517       -0.97183
H          1.30200        2.76374        1.69903
H         -0.97224        2.45142        1.98172
H         -4.64177        2.12404       -0.37114
H         -4.93720        0.79816       -1.25307
H         -2.80891       -0.89964       -1.50511
H         -2.47016       -2.75229        0.36556
H         -1.56397       -4.07459        0.64510
H          2.82195       -3.76769        0.52290
H          3.11010       -2.20572        0.16331
H          3.36688        0.58349       -0.97779
H          2.66450       -0.55206       -1.89777
