28
Coordinates from ORCA-job ./opt_b97-3c_parallel
N         -4.35615       -0.56366       -0.65201
C         -3.28719       -0.39658       -0.41255
C         -2.15062       -1.12430       -0.14552
C         -1.15081       -0.20272        0.02269
C          0.25598       -0.60750        0.20597
C          0.58029       -1.98531        0.45109
N          0.33381       -3.04320        0.64684
N          1.92133       -2.10547        0.38130
C          2.56182       -0.95949        0.08982
N          3.64029       -1.20084        0.01282
C          1.53396        0.03506       -0.00980
C          1.87564        1.34821       -0.50364
N          2.49494        2.17138       -0.89609
N          1.10513        2.39830       -0.19848
C          0.15796        2.27386        0.72913
N         -1.12305        2.34419        0.27705
C         -1.70823        1.12814       -0.03237
N         -3.04178        0.96501       -0.32080
H         -5.15107        0.07451       -0.55470
H         -4.76680       -1.41767       -1.03750
H         -1.96872       -2.05384       -0.68393
H         -0.48835       -3.36809        1.15521
H          0.94198       -3.85975        0.57041
H          4.36914       -0.49536       -0.11539
H          4.14922       -2.07911        0.13582
H          2.68088        1.94110       -1.87247
H          2.87220        3.11080       -0.76043
H         -0.10425        3.34529        0.72290
