26
Coordinates from ORCA-job ./opt_b97-3c_parallel
N          4.79537        1.02387       -0.08607
C          3.70868        0.67150       -0.13060
C          2.34438        0.21495       -0.14012
C          1.87477       -1.08603       -0.12043
N          2.51714       -1.98790       -0.11778
C          0.50875       -1.01091       -0.09220
C         -0.33575       -2.16882       -0.08138
N         -1.22018       -2.82215       -0.06507
C         -2.04005       -2.12408        0.16235
C         -2.95986       -1.06462        0.41334
C         -2.51827        0.29058        0.21228
N         -3.48283        1.25967        0.31001
C         -2.85891        2.46974        0.09973
N         -1.63451        2.06799       -0.05210
C         -1.26728        0.82641       -0.02984
C          0.08710        0.28877       -0.09577
C          1.19680        1.11092       -0.14384
N          1.33133        2.21071       -0.15536
H          2.35856       -2.98995       -0.03164
H          3.52595       -1.84595       -0.10833
H          0.14994       -3.15758       -0.11527
H         -2.71031       -2.96963        0.38254
H         -3.99042       -1.27897        0.68293
H         -3.22348        3.50738        0.06554
H          2.03939        2.91326        0.04941
H          0.42607        2.67502       -0.10912
