28
Coordinates from ORCA-job ./opt_b97-3c_parallel
N          4.42521        2.46973       -0.24329
C          3.51252        1.81483       -0.03504
C          2.58473        0.72197        0.00185
C          1.26388        1.27406       -0.01170
C          0.33072        0.17649        0.02215
C         -1.08739        0.46791        0.02070
C         -1.51612        1.77417        0.05848
C         -2.94106        1.77393        0.01000
N         -3.82703        2.43292        0.00784
N         -3.34185        0.45616       -0.05959
C         -2.20104       -0.33342       -0.04183
C         -2.48931       -1.73887       -0.10630
C         -1.72622       -2.87932       -0.03436
C         -0.32736       -3.15561        0.10679
C          0.81388       -2.39215        0.13269
C          1.07028       -0.97916        0.05744
C          2.46942       -0.64717        0.04708
N          3.46811       -1.12168        0.05932
H          1.04679        2.33569       -0.05451
H         -0.94898        2.69448        0.12134
H         -3.81696        3.43217        0.21135
H         -4.80291        2.18845       -0.15903
H         -3.55488       -1.93782       -0.19219
H         -2.31219       -3.79367       -0.07027
H         -0.13136       -4.22249        0.17057
H          1.72156       -2.98422        0.20858
H          4.40212       -0.71336        0.06499
H          3.54415       -2.01554       -0.42271
