26
Coordinates from ORCA-job ./opt_b97-3c_parallel
N          1.47559        3.07689       -0.78605
C          1.13758        2.12608       -0.33905
C         -0.26464        2.12866       -0.03435
C         -0.79416        1.30083        0.89874
C         -1.24820        0.37425        0.01653
C         -2.58305        0.20355       -0.45853
N         -3.64486        0.47411       -0.57220
N         -2.09780       -0.74260       -0.81668
C         -1.44692       -1.64511       -0.97040
C         -0.55851       -0.73112       -0.33081
C          0.77229       -1.14279        0.05802
C          1.12463       -2.45975        0.07201
C          2.35298       -2.29449        0.64552
N          2.82613       -1.01117        0.82534
C          1.82258       -0.22418        0.44283
C          2.02658        1.13864        0.23397
H          2.48924        3.11231       -0.69671
H          1.12503        4.00383       -0.55346
H         -0.87210        2.94561       -0.42221
H         -1.43859        1.68646        1.68455
H         -4.17824       -0.38477       -0.45703
H         -3.39277        0.79621        0.35955
H         -1.65103       -2.62750       -1.42031
H          0.44294       -3.21889        0.44707
H          3.16569       -2.97204        0.94672
H          3.05378        1.48201        0.33241
