27
Coordinates from ORCA-job ./opt_b97-3c_parallel
N          0.48967       -5.06068        0.37881
C          0.57186       -3.92571        0.27103
C          0.71187       -2.51389        0.10946
C          1.86432       -1.82352        0.59050
N          1.97999       -0.55183        0.39768
C          1.63952        0.65551        0.07413
C          2.50331        1.69840       -0.07474
C          3.91688        1.92073       -0.03238
N          4.91980        2.10429       -0.55058
C          1.71065        2.86233       -0.30765
N          0.87907        2.13407       -0.18296
C          0.30821        1.18261       -0.09952
C         -0.89822        0.38797        0.04674
C         -2.13834        1.07367        0.18500
N         -2.38310        2.15060        0.23811
C         -3.02301       -0.05310        0.19188
C         -4.44940        0.05850        0.24258
N         -5.58775        0.15653        0.24551
C         -2.44925       -1.29379        0.10902
C         -1.12556       -0.97204       -0.03279
C         -0.24361       -1.84694       -0.59610
H          2.75715       -2.17009        1.13167
H          1.92251        3.92946       -0.47509
H         -1.61364        2.81752        0.26539
H         -3.24657        2.69016        0.21013
H         -2.90522       -2.08610       -0.48184
H         -0.34552       -2.06714       -1.65615
