28
Coordinates from ORCA-job ./opt_b97-3c_parallel
N         -0.32299        3.46250        0.00696
C         -0.16195        2.36498       -0.01771
C         -1.35193        1.66560        0.09138
C         -1.68441        0.32901        0.05440
C         -3.08987        0.06410        0.09246
C         -3.29961       -1.26513        0.05042
C         -2.11575       -1.84580        0.00184
C         -1.09707       -0.92060        0.01454
C          0.30536       -1.24800        0.06185
C          0.67004       -2.62397        0.17162
C          2.01045       -2.73413        0.18408
C          2.49732       -1.51008        0.07708
C          1.49770       -0.55351       -0.00692
C          1.86762        0.77823       -0.18007
N          2.93413        1.06331       -0.31866
C          1.23023        2.01823       -0.20777
H          0.44995        3.85833        0.53845
H         -1.17152        3.90151        0.35838
H         -2.23699        2.29773        0.18872
H         -3.85953        0.82912        0.13325
H         -4.26517       -1.76453        0.03006
H         -1.99683       -2.92186       -0.07575
H         -0.00557       -3.46597        0.25763
H          2.58269       -3.65327        0.28289
H          3.56721       -1.30910        0.08592
H          3.46941        1.86826       -0.63651
H          2.94824        0.38508       -1.07829
H          1.83927        2.92668       -0.34132
