26
Coordinates from ORCA-job ./opt_b97-3c_parallel
N          4.89900        0.56190        0.32142
C          3.75890        0.60815        0.25346
C          2.32970        0.70924        0.17086
C          1.80792        1.97273        0.17251
C          0.46335        1.69616        0.16629
C         -0.08590        3.01614        0.25850
N         -0.68024        3.87428       -0.20763
C          0.20164        0.34898        0.07290
C         -1.13748       -0.21758        0.03332
C         -2.24844        0.67153        0.17578
N         -2.99701        1.47190        0.29960
N         -2.75174       -0.32003        0.05700
C         -3.06668       -1.38301       -0.10712
C         -1.64573       -1.48199       -0.14140
C         -1.14196       -2.82037       -0.40566
C          0.17494       -3.21440       -0.48448
C          1.22255       -2.30358       -0.19867
N          1.80273       -1.41851        0.06307
C          1.41148       -0.39144        0.07643
H          2.24153        2.72961       -0.48332
H         -2.38137        2.23326        0.57765
H         -3.70650        1.37950        1.02303
H         -4.03797       -1.89419       -0.18207
H         -1.89108       -3.58958       -0.56727
H          0.44407       -4.23867       -0.72306
H          2.15444       -2.88009       -0.30790
