31
Coordinates from ORCA-job ./opt_b97-3c_parallel
N          4.13813        1.90634       -0.63473
C          3.52321        1.60323        0.27968
C          2.38804        0.72343        0.19592
C          1.05710        1.01249       -0.02054
C          0.68383        2.38573       -0.35395
C         -0.61651        2.93880       -0.66481
C         -1.86936        2.43070       -0.18294
C         -1.81500        1.41654        0.82181
N         -2.25273        1.42898        1.83364
C         -2.13078        0.45296       -0.19176
C         -3.35153       -0.10771       -0.45403
N         -3.02593       -1.34958       -0.80864
C         -1.67444       -1.65391       -0.81093
N         -1.96203       -2.67949       -1.10621
C         -1.06052       -0.43245       -0.42988
C          0.33727       -0.23463       -0.10973
C          1.21727       -1.27969        0.06877
C          1.11145       -2.71194        0.10827
N          0.43150       -3.43416        0.67834
C          2.52985       -0.71315        0.28556
N          3.48809       -1.24507        0.45723
H          1.50084        3.08169       -0.51441
H         -0.64174        3.90689       -1.15573
H         -2.77092        2.99033       -0.42185
H         -2.29936        2.42346        2.05586
H         -2.63148        0.94055        2.64491
H         -4.29535        0.44982       -0.35518
H         -1.41812       -3.14010       -0.37349
H         -2.18431       -3.40384       -1.78804
H          4.23674       -0.68076        0.05660
H          3.93332       -2.04838        0.89832
