29
Coordinates from ORCA-job ./opt_b97-3c_parallel
N         -5.41277       -0.60926        0.98440
C         -4.35612       -0.27592        0.70679
C         -3.02271        0.09778        0.36039
C         -2.64645        1.31899       -0.11157
C         -1.28963        1.15664       -0.27049
C         -0.52365        2.18430       -0.93310
N         -0.81602        3.15198       -1.37639
N          0.75042        2.17358       -1.15277
C          1.64042        2.40634       -0.23624
C          2.01154        1.23040        0.34779
C          2.80683        1.58485        1.03816
N          3.86084        1.49127        1.47585
C          1.74029       -0.08389        0.06371
N          2.72139       -1.06501       -0.08464
C          2.05496       -2.21580       -0.19879
N          2.87318       -2.94934       -0.32839
C          0.69515       -2.11036       -0.13548
C         -0.22659       -3.18806       -0.31713
N         -0.92836       -4.07763       -0.47184
C          0.43345       -0.70273        0.00470
C         -0.83700       -0.11681        0.07423
C         -1.94305       -0.81014        0.47975
H         -3.06571        2.23563        0.29749
H         -0.55296        4.04261       -1.79638
H         -1.64089        2.82765       -1.87675
H          1.44676        3.43563        0.10822
H          2.53499       -3.90689       -0.43534
H          3.89002       -3.00253       -0.39971
H         -2.04543       -1.81699        0.86700
