28
Coordinates from ORCA-job ./opt_b97-3c_parallel
N         -2.36261       -1.41388       -2.65801
C         -1.94788       -0.76439       -1.81410
C         -1.41965        0.01322       -0.73704
C         -2.23126        0.52160        0.32998
N         -3.25342        0.59771        0.74154
N         -1.44844        1.00494        0.94157
C         -0.43656        1.17486        0.51994
C          0.37321        2.33479        0.78794
C          1.51034        2.75557       -0.00599
C          2.31876        2.03448       -0.97573
C          2.71325        0.63784       -0.96741
C          2.22162       -0.37299       -0.07072
C          2.77930       -1.58797        0.14904
C          1.83098       -2.36094        0.66064
C          0.66224       -1.73652        0.78214
N         -0.43551       -2.29941        1.30988
C          0.85672       -0.47343        0.29806
C         -0.02814        0.30077       -0.53077
H         -3.70540        0.07538       -0.00606
H         -3.39113        1.58622        0.54154
H         -0.03008        3.06486        1.48425
H          1.74465        3.81158        0.08201
H          2.96180        2.66389       -1.58325
H          3.59916        0.39400       -1.54534
H          3.81234       -1.86993       -0.03758
H          1.99863       -3.39328        0.95977
H         -0.59585       -3.30118        1.22503
H         -1.33393       -1.82186        1.26224
