29
Coordinates from ORCA-job ./opt_b97-3c_parallel
N          5.43116        1.84480        0.28096
C          4.41549        1.33563        0.16735
C          3.12704        0.73376        0.03028
C          1.94605        1.51002       -0.05856
C          0.90884        0.53941       -0.16406
C         -0.46705        1.03151       -0.27125
C         -0.75943        2.35725       -0.44780
C         -2.04382        2.58703       -0.22542
C         -2.66041        1.42753        0.11194
C         -4.05954        1.28804        0.38145
N         -5.18151        1.16963        0.56131
C         -1.70704        0.35566        0.07853
C         -2.06953       -0.92517        0.46597
C         -1.30729       -2.07563        0.10403
N         -1.70387       -3.06205        0.40206
N         -0.36998       -2.03725       -0.77588
C          0.88241       -1.93035       -0.51986
N          1.32627       -2.92905       -0.68782
C          1.53327       -0.70201       -0.17462
C          2.89685       -0.60905       -0.01739
H          1.87632        2.59161       -0.01419
H         -0.06473        3.12515       -0.77642
H         -2.53441        3.55266       -0.32455
H         -3.02695       -1.09195        0.95381
H         -2.29447       -3.01059        1.22975
H         -0.83216       -3.50400        0.68832
H          1.60638       -2.36912       -1.49087
H          0.77453       -3.70456       -1.05004
H          3.43775       -1.29777        0.62725
