32
Coordinates from ORCA-job ./opt_b97-3c_parallel
N         -4.99228       -1.50318        0.11613
C         -3.93221       -1.09021        0.02523
C         -2.62312       -0.51981       -0.06680
C         -1.22509       -0.90028       -0.04611
C         -1.08901       -2.18950        0.58136
C          0.06605       -2.91548        0.15060
C          0.94835       -2.38160       -0.74021
C          1.95155       -1.56430       -0.30809
N          2.82362       -2.24138       -0.32821
C          1.83448       -0.14161       -0.08308
C          2.95612        0.71672        0.13665
N          4.04536        0.58112        0.25630
C          2.62993        2.05389        0.17957
C          1.25847        2.03879        0.04063
N          0.89854        3.08200        0.12047
C          0.70532        0.72500       -0.11143
C         -0.71587        0.44500       -0.17827
N         -1.60251        1.50197       -0.21558
C         -2.75113        0.84431       -0.15433
N         -3.28221        1.81732       -0.20601
H         -1.77022       -2.62814        1.30530
H          0.22464       -3.90432        0.56915
H          0.76502       -2.49726       -1.80795
H          3.62068       -1.65037       -0.56072
H          3.16232       -3.20249       -0.32802
H          4.10268       -0.30113        0.76240
H          4.82940        1.15036        0.57169
H          3.24765        2.79771       -0.33268
H          1.01663        3.52170       -0.79169
H          1.37959        3.68019        0.79240
H         -4.25587        1.64831        0.04790
H         -3.22209        2.80372       -0.45834
