34
Coordinates from ORCA-job ./opt_b97-3c_parallel
N         -3.21018        3.11249        0.68727
C         -2.16081        2.67063        0.58981
C         -0.84598        2.11392        0.50893
C          0.25696        2.90355        0.93160
C          1.48435        2.32848        0.79291
C          1.14099        1.05986        0.39565
C          2.01023        0.26018       -0.43031
C          3.04410        0.89855       -1.20345
N          3.88614        1.38977       -1.80061
C          2.34871       -1.00913        0.02913
N          3.27121       -1.61405       -0.10992
C          1.61195       -1.74141        1.04756
C          0.22276       -1.86816        1.04980
N         -0.02901       -2.70321        1.73343
C         -0.63979       -1.44149       -0.03628
C         -1.79245       -2.10786       -0.39133
N         -2.31627       -3.06831       -0.23018
C         -2.54434       -1.23367       -1.12785
C         -1.98948       -0.02761       -1.19151
N         -2.50016        0.95241       -1.95509
C         -0.81101       -0.10342       -0.50564
C         -0.20734        0.95777        0.14477
H          0.10741        3.91456        1.29878
H          2.26636        2.49219        1.53014
H          3.27621       -2.62044       -0.26431
H          4.04534       -1.22711       -0.64755
H          2.18952       -2.42228        1.68862
H          0.19700       -3.33841        2.49641
H         -1.03653       -2.55098        1.76676
H         -1.40370       -3.45305        0.01023
H         -2.75211       -3.72498       -0.87499
H         -3.46992       -1.49242       -1.64417
H         -2.25847        1.92301       -1.76404
H         -3.48343        0.92802       -2.21881
