29
Coordinates from ORCA-job ./opt_b97-3c_parallel
N         -2.00395        2.46901       -2.50955
C         -1.55806        1.76675       -1.72475
C         -0.93906        1.38745       -0.87734
C         -1.87213        0.50029       -0.35565
C         -1.64860       -0.86069        0.06004
C         -2.75153       -1.64036        0.53732
N         -3.77571       -1.92569        0.81743
N         -1.84997       -2.27282        0.60421
C         -0.89576       -2.76377        0.35423
C         -0.36173       -1.46008        0.08444
C          1.00933       -1.10332       -0.04902
N          2.00989       -1.88685       -0.55886
C          3.14024       -1.09618       -0.59067
N          4.01586       -1.65159       -0.96575
N          2.79759        0.17076       -0.14369
C          1.46113        0.20849        0.25693
C          0.72506        1.26129        0.79553
C          1.34610        1.58701        1.66543
N          2.04677        2.08732        2.41964
C         -0.08451        1.96922       -0.01589
N         -0.02692        3.32336        0.01904
H         -2.89873        0.82294       -0.13861
H         -4.51498       -1.23471        0.70581
H         -4.19404       -2.83509        0.62639
H         -0.83323       -3.84956        0.18249
H          4.22488       -2.64579       -1.04325
H          4.90243       -1.18699       -0.76818
H          0.41938        3.81047        0.79552
H         -0.81118        3.88706       -0.30677
