19
Coordinates from ORCA-job ./opt_b97-3c_parallel
C          0.50735        2.19176       -0.33980
N         -0.72515        2.58204        0.00234
C         -1.76924        1.75149        0.21250
C         -1.71608        0.30822        0.07834
C         -2.92219       -0.41793        0.33126
N         -2.17299       -1.17989        0.06217
C         -1.47549       -1.47384       -0.73622
C         -0.55738       -0.46022       -0.29674
C          0.83173       -0.75939       -0.06238
N          1.42100       -1.87764        0.35329
C          2.72919       -1.62175        0.42706
N          3.03047       -0.32163        0.06540
C          1.81851        0.25872       -0.25377
N          1.52799        1.45868       -0.64685
H          0.76097        3.26365       -0.34368
H         -2.66354        2.32860        0.49333
H         -3.96043       -0.19809        0.62295
H         -1.53781       -2.56644       -0.86065
H          3.38090       -2.44567        0.75802
