29
Coordinates from ORCA-job ./opt_b97-3c_parallel
N         -4.32488        2.33515        0.44107
C         -3.59676        1.47035        0.27292
C         -2.69489        0.38588        0.02048
C         -3.08408       -0.82885       -0.44940
C         -2.02616       -1.61559       -0.52748
C         -0.92863       -0.90444       -0.14629
C          0.41557       -1.41931        0.02548
C          0.66855       -2.82998        0.01945
N          0.16520       -3.81148       -0.03831
C          2.01380       -3.01810        0.15208
C          2.63108       -1.84656        0.22037
C          1.73124       -0.82062        0.12792
C          2.15053        0.55108       -0.15780
N          3.21302        0.79911       -0.34741
C          1.41769        1.72796       -0.22956
C          1.56645        3.12850       -0.51839
N          2.14396        4.10839       -0.63489
C          0.08302        1.80126        0.27390
N         -0.75741        1.27169        0.73475
C         -1.27504        0.41780        0.27317
H         -4.10029       -1.10761       -0.71801
H         -2.03877       -2.63885       -0.89292
H          0.43854       -4.63547        0.49304
H         -0.53462       -3.32151        0.51556
H          2.52958       -3.97792        0.20752
H          3.70576       -1.72923        0.34220
H          3.29897        0.13602       -1.11532
H          3.60696        1.68145       -0.67138
H         -0.61193        2.65292        0.39148
