32
Coordinates from ORCA-job ./opt_b97-3c_parallel
N         -4.08354       -1.05939        1.82950
C         -2.99471       -0.80131        1.59353
C         -2.37605       -0.77193        0.67543
C         -1.36224       -1.65520        0.47336
C         -0.01065       -1.26245        0.16793
C          1.03233       -2.23668        0.07813
N          0.93033       -3.33337        0.17895
C          2.23012       -1.47676       -0.17869
C          3.52093       -2.07478       -0.38836
N          4.53428       -2.56640       -0.57992
C          1.93429       -0.05730       -0.22376
N          2.74614        0.63507       -0.51505
C          0.52401        0.06263        0.04409
C         -0.18233        1.34304        0.01480
C          0.43044        2.60245        0.33925
C          1.60277        2.82319        1.12998
N          2.51741        3.00684        1.78852
C         -0.44728        3.58258        0.01369
C         -1.53580        3.02739       -0.49835
C         -1.43679        1.66439       -0.48318
N         -2.39906        0.95302       -1.10664
C         -2.64519       -0.29914       -0.58056
N         -3.36353       -0.41035       -1.41930
H         -1.55946       -2.71952        0.56764
H          0.35152       -4.09962        0.51860
H          1.89740       -3.61704        0.33522
H          2.91040        1.62877       -0.66999
H          3.65316        0.18259       -0.62934
H         -0.27678        4.65082        0.13390
H         -2.40225        3.58755       -0.84486
H         -3.67479       -0.20201       -2.36798
H         -4.02562       -1.09339       -1.04960
