26
Coordinates from ORCA-job ./opt_b97-3c_parallel
N         -4.90249       -0.59239        0.23391
C         -3.78396       -0.36886        0.16273
C         -2.37279       -0.12863        0.06183
C         -1.95642        1.13325       -0.22866
C         -0.59816        0.96514       -0.19491
C          0.21773        2.06928       -0.63723
N          0.52447        3.06339       -1.00260
N          1.41026        2.29150       -0.07529
C          1.79787        1.57218        0.97804
N          2.79369        0.68194        0.72077
C          2.39813       -0.48899        0.09713
N          3.25328       -1.51776       -0.19124
C          2.45791       -2.57569       -0.58308
C          1.11783       -2.30819       -0.50558
C          1.06487       -0.99093       -0.13456
C         -0.19315       -0.36249       -0.01543
C         -1.33530       -1.10839        0.18025
N         -1.61731       -2.15960        0.39292
H         -2.42961        2.00391        0.22156
H         -0.33292        3.02397       -1.55146
H          0.75591        4.05175       -0.90434
H          2.74999        2.02810        1.29125
H          2.88743       -3.54532       -0.88004
H          0.44763       -2.70771       -1.26478
H         -2.61609       -2.29920        0.23965
H         -1.35759       -2.78870        1.15092
