25
Coordinates from ORCA-job ./opt_b97-3c_parallel
N          4.54393       -0.22056        0.55604
C          3.43154       -0.44297        0.41500
C          2.04534       -0.76070        0.25341
C          1.64565       -2.11599        0.08190
C          0.31215       -2.33703       -0.10810
C         -0.15162       -1.05152        0.00946
C         -1.54468       -0.70353       -0.18766
C         -2.46162       -1.60571       -0.64295
N         -3.59257       -0.91813       -0.67427
C         -3.46491        0.38674       -0.23988
C         -2.10271        0.58709        0.10281
C         -1.66042        1.69473        0.78055
C         -0.55282        2.36936        0.47231
C          0.29026        1.94615       -0.51433
N          1.01245        2.55155       -1.08647
N          1.02072        1.16645        0.21960
C          0.84167       -0.11501        0.17918
H          2.38659       -2.90974        0.07869
H         -0.18982       -3.16184        0.39448
H         -2.62123       -2.63688       -0.99260
H         -4.43582        0.90368       -0.21981
H         -2.27853        2.07292        1.59165
H         -0.30190        3.26013        1.04871
H          2.01537        2.51166       -0.91492
H          0.72802        3.51975       -0.95349
