32
Coordinates from ORCA-job ./opt_b97-3c_parallel
N          3.40263       -3.84101        0.14260
C          2.66155       -2.97854        0.04393
C          1.67910       -1.94095       -0.07724
C          2.30683       -0.71732        0.09945
C          1.83016        0.57453        0.04619
C          2.77577        1.65361        0.13483
N          3.87242        1.75514        0.23059
C          2.25434        2.92618        0.09147
C          0.92449        2.58810        0.05554
N          0.27494        3.48744        0.07402
C          0.62371        1.19224       -0.00508
C         -0.67965        0.77650       -0.02661
N         -1.91071        1.17727        0.01553
C         -3.18662        0.96901        0.06362
N         -3.88296        1.81174        0.25044
C         -2.72230       -0.30446       -0.20572
C         -3.85045       -1.17921       -0.36346
N         -3.92836       -1.98413        0.44545
C         -1.28621       -0.43477       -0.22458
N         -0.91582       -1.70992       -0.47675
C          0.33243       -2.32764       -0.44240
N         -0.19842       -3.27095       -0.68449
H          3.38184       -0.76420        0.27810
H          4.40410        2.61198        0.38318
H          4.55829        1.03337        0.01416
H          2.66121        3.68403       -0.58437
H         -0.62859        3.93551       -0.06724
H          0.93005        4.26367        0.18343
H         -4.81049        1.46874        0.51137
H         -3.94157        2.82696        0.35033
H          0.64575       -3.84583       -0.62296
H         -0.90251       -3.90128       -1.07382
