29
Coordinates from ORCA-job ./opt_b97-3c_parallel
N         -4.84942        0.02436        0.10118
C         -3.80392       -0.43592        0.07640
C         -2.47348       -0.95596        0.05106
C         -2.17218       -2.28067        0.12591
N         -0.86463       -2.15921        0.14977
C         -0.42912       -0.85450        0.06179
C          0.99597       -0.58713        0.03807
C          1.96465       -1.62981        0.22026
N          2.03333       -2.70981        0.44831
C          3.27187       -1.21600        0.12885
C          3.11393        0.12161       -0.14237
N          4.10797        0.60030       -0.21986
C          1.76419        0.60629       -0.19505
C          1.55381        1.96799       -0.42590
C          0.47729        2.83565       -0.31444
C         -0.86879        2.53076        0.07722
N         -1.73269        3.18961        0.26719
N         -1.23242        1.26061        0.04690
C         -1.48875       -0.01503        0.00296
H         -2.73742       -3.22475        0.15170
H          2.66313       -3.49815        0.58851
H          1.09952       -3.09738        0.32606
H          4.04518       -1.81244       -0.36659
H          5.05152        0.23003       -0.11281
H          4.18723        1.61262       -0.15011
H          2.45954        2.50954       -0.68295
H          0.67539        3.89147       -0.48029
H         -1.23020        4.06838        0.38644
H         -2.51912        3.23223        0.91556
