29
Coordinates from ORCA-job ./opt_b97-3c_parallel
N         -4.51642       -1.93199       -1.26226
C         -3.58139       -1.46002       -0.80625
C         -2.38417       -0.90629       -0.23006
C         -1.82453       -1.66253        0.86446
C         -0.41123       -1.70256        1.09617
C          0.40821       -1.37515       -0.03235
N          1.66511       -1.67959       -0.13965
C          2.89819       -1.33446       -0.35517
N          3.55846       -2.20365       -0.53695
C          2.38981       -0.06972       -0.15447
C          3.53609        0.79139       -0.21931
N          4.57241        1.01982       -0.64494
C          0.97595       -0.13894        0.05325
C          0.21817        1.02372        0.43179
C          0.76155        2.30127        0.74712
C         -0.24187        3.20823        0.84551
C         -1.39465        2.59859        0.58920
C         -1.19826        1.26030        0.34077
C         -1.98591        0.40383       -0.54607
N         -2.58554        1.03547       -1.23490
H         -2.42513       -2.42670        1.35064
H         -0.03340       -2.39694        1.84069
H          3.96510       -3.11509       -0.32726
H          4.32656       -1.62231       -0.87677
H          1.81463        2.54030        0.83616
H         -0.12147        4.26231        1.08519
H         -2.36503        3.09085        0.60583
H         -2.50760        2.02476       -1.46595
H         -3.57684        0.80412       -1.29794
