26
Coordinates from ORCA-job ./opt_b97-3c_parallel
N          3.35090        2.58714       -1.15920
C          2.54623        1.77522       -1.16981
C          1.37283        1.22122       -0.56429
C          0.23963        1.99987       -0.61206
C         -1.02432        1.57746       -0.04935
C         -2.01707        2.58834        0.10840
N         -2.54951        1.66532        0.43894
C         -2.91466        0.62651        0.62495
C         -1.56731        0.35085        0.23403
C         -1.19245       -0.98226        0.05909
N         -2.13461       -1.99958        0.10174
C         -1.54578       -3.14030       -0.25216
C         -0.26424       -2.91374       -0.52682
C          0.02495       -1.61340       -0.31667
C          1.33508       -1.02346       -0.26107
C          2.52713       -1.76590       -0.54323
N          3.47785       -2.36949       -0.73457
C          1.40457        0.21360        0.45596
N          1.72594        0.37885        1.50186
H          0.27591        3.00326       -1.02729
H         -2.50558        3.57434        0.10861
H         -3.82712        0.07781        0.90276
H         -2.16585       -4.04862       -0.28134
H          0.44390       -3.67400       -0.84731
H          2.53819       -0.22903        1.59328
H          2.06971        1.33672        1.55095
