23
Coordinates from ORCA-job ./opt_b97-3c_parallel
N         -3.19502        0.99416       -1.74606
C         -2.24873        0.91796       -1.10687
C         -1.57464        0.68249       -0.25750
C         -1.14657        1.82726        0.35468
N         -0.18911        2.32998        0.58786
C          0.80745        1.97394        0.27618
C          1.64719        0.88022       -0.11789
C          3.04403        1.01596       -0.34870
N          2.86381       -0.09133       -0.43126
C          2.54932       -1.17231       -0.42087
C          1.32096       -0.48932       -0.19148
C          0.07345       -1.19281        0.03356
C         -0.07308       -2.53676        0.16784
C         -1.36611       -2.76718        0.34435
C         -2.07799       -1.64670        0.31740
C         -1.23472       -0.59715        0.09186
H         -1.62582        2.78827        0.60157
H          1.32974        2.94184        0.32084
H          3.84478        1.76979       -0.37330
H          3.00994       -2.16374       -0.54150
H          0.71724       -3.28296        0.14947
H         -1.79293       -3.75604        0.49382
H         -3.15684       -1.57941        0.43752
