26
Coordinates from ORCA-job ./opt_b97-3c_parallel
N          4.17156       -1.52967        0.02002
C          3.04347       -0.80451        0.01808
C          2.91963        0.54715        0.08055
C          1.55024        0.93137        0.01125
N          1.23824        2.26039        0.17297
C          0.06582        2.97245        0.06444
C         -1.27326        2.69154       -0.35526
C         -2.01105        1.53493       -0.43608
C         -1.68926        0.15821       -0.16327
C         -2.77184       -0.68698       -0.12369
N         -3.84793       -0.93560       -0.16329
N         -2.32523       -1.98221        0.06671
C         -0.94280       -1.93509        0.12954
C         -0.54120       -0.56915       -0.01030
C          0.87429       -0.32134       -0.05416
C          1.82002       -1.31349       -0.05316
H          5.07004       -1.08016       -0.15076
H          4.19629       -2.45196       -0.41140
H          3.72867        1.26031        0.20958
H          0.62822        3.90567        0.22239
H         -1.82716        3.60953       -0.52978
H         -3.05674        1.71276       -0.66928
H         -4.31925       -0.05087        0.02139
H         -4.57940       -1.64566       -0.19230
H         -0.64546       -2.98730        0.25817
H          1.61875       -2.37915       -0.13023
