30
Coordinates from ORCA-job ./opt_b97-3c_parallel
N         -1.72382       -4.92587       -0.00113
C         -1.24084       -3.88964        0.00469
C         -1.07325       -2.45059        0.00154
C          0.30545       -2.30789        0.00145
C          1.10432       -1.09485       -0.00039
C          2.50219       -1.38586       -0.00037
C          3.22890       -0.16408       -0.00265
C          4.66455       -0.26878       -0.00371
N          5.80614       -0.32388        0.00497
C          2.27946        0.84589       -0.00391
N          2.84248        1.80213       -0.00547
C          0.93365        0.28526       -0.00249
C         -0.12797        1.20255       -0.00341
N          0.10412        2.57195       -0.00555
C         -0.95141        3.37426       -0.00525
C         -1.97899        2.47904       -0.00208
C         -3.33956        2.92229       -0.00099
N         -4.43633        3.24331       -0.00008
C         -1.54868        1.12127       -0.00100
C         -2.48263        0.03878        0.00238
C         -1.92350       -1.28692       -0.00147
N         -2.92818       -1.76329       -0.01043
H          0.93536       -3.19968        0.00281
H          2.95421       -2.37380        0.00076
H          2.17955        2.57577       -0.00188
H          3.77584        2.20959       -0.00066
H         -0.94344        4.47449       -0.00674
H         -3.54239        0.32382        0.00595
H         -3.07748       -2.77158       -0.00375
H         -3.86341       -1.35924       -0.00517
