29
Coordinates from ORCA-job ./opt_b97-3c_parallel
N          0.37508        3.93418        0.94437
C         -0.33330        3.14318        0.52487
C         -1.23681        2.14484        0.04509
C         -2.54939        2.51559        0.09044
N         -3.17956        1.35214       -0.00011
C         -2.35661        0.24737       -0.11276
N         -2.75070       -1.07492       -0.31707
C         -1.76749       -1.98417       -0.64084
N         -2.62821       -2.66935       -0.76779
N         -1.52075       -2.47367        0.62629
C         -0.26408       -2.16718        1.12982
C          0.56498       -1.17186        0.48379
C          1.98325       -1.36850        0.48552
N          2.47971       -2.27978        0.87160
C          2.50160       -0.18371       -0.15026
C          3.91316       -0.04960       -0.38565
N          5.03002        0.04482       -0.60437
C          1.45605        0.67821       -0.45359
N          1.69290        1.61263       -0.99891
C          0.22477        0.07056       -0.01445
C         -1.00746        0.73588       -0.08835
H         -3.01286        3.51142        0.18144
H         -2.69987       -3.62708       -0.41670
H         -3.00532       -2.71580       -1.71643
H         -0.78231       -2.99232        1.64307
H          2.46988       -3.26180        1.14322
H          3.46362       -2.01316        0.82267
H          2.68701        1.58261       -1.22939
H          1.43500        2.59609       -1.08061
