28
Coordinates from ORCA-job ./opt_b97-3c_parallel
N         -2.46551       -3.03367       -0.44926
C         -2.22126       -2.06597        0.10701
C         -1.73257       -0.71495        0.10546
C         -2.81686        0.21185        0.18495
N         -3.92324        0.23622        0.27114
C         -2.50058        1.54166        0.18085
C         -1.13092        1.45908        0.12322
C         -0.45313        2.72930        0.16643
C          0.90364        3.17900        0.02870
C          2.17450        2.55289       -0.18828
C          2.62790        1.26003       -0.22944
C          1.96301        0.00063       -0.08433
C          2.85069       -1.12114       -0.10807
N          3.79619       -1.68489       -0.16473
N          1.87550       -1.64365        0.00990
C          0.79137       -1.88697        0.08405
C          0.69231       -0.46067        0.03073
C         -0.63401        0.11055        0.06836
H         -4.14764       -0.67602       -0.12215
H         -4.78092        0.78441        0.25783
H         -3.02143        2.26646       -0.45026
H         -1.13278        3.56990        0.27891
H          0.98023        4.26175        0.05981
H          2.95349        3.30090       -0.30047
H          3.70231        1.17675       -0.36753
H          4.05355       -2.50482        0.38004
H          3.90865       -0.87624        0.44270
H          0.63075       -2.97431        0.13885
