33
Coordinates from ORCA-job ./opt_b97-3c_parallel
N         -0.88262       -1.79597       -2.45049
C         -1.71367       -1.64648       -1.67598
C         -1.85405       -1.20172       -0.66293
C         -1.29390       -1.79295        0.43842
N         -1.49767       -2.42895        1.32237
N         -0.03662       -2.08580        0.79891
C          1.04708       -1.59636        0.16322
N          2.26044       -2.23413        0.18967
C          3.17901       -1.34451       -0.34771
N          4.22527       -1.69978       -0.41451
C          2.61797       -0.12967       -0.65966
C          1.30487       -0.26707       -0.31282
C          0.41896        0.87214       -0.11512
C          0.94277        2.20680       -0.02439
N          1.93315        2.69726       -0.06699
C          0.00442        3.18001        0.25730
C         -1.13863        2.41611        0.22132
N         -1.98359        3.12291        0.30866
C         -0.93108        1.01786        0.01812
C         -2.00759        0.08463       -0.22069
N         -3.08914        0.33504       -0.15409
H         -1.44185       -2.89944        2.22525
H         -2.49001       -2.26942        1.14920
H          5.01181       -1.11060       -0.69506
H          4.62305       -2.63163       -0.28264
H          2.89592        0.39534       -1.57150
H          2.35944        3.04635        0.79085
H          1.83663        3.50320       -0.68524
H          0.16862        3.91262        1.05415
H         -1.93222        4.12092        0.10426
H         -2.91384        2.96102        0.69284
H         -4.06471        0.07251       -0.29181
H         -3.01717        1.31346       -0.43328
