26
Coordinates from ORCA-job ./opt_b97-3c_parallel
N          4.75611       -0.45500       -0.34771
C          3.72691        0.03832       -0.30035
C          2.41112        0.59731       -0.23141
C          2.22236        2.00821       -0.19247
C          0.92910        2.44524       -0.12435
C          0.28211        1.23466       -0.10084
C         -1.15907        1.09337       -0.01309
C         -1.97940        2.18361        0.01523
N         -3.06155        1.44332        0.08403
C         -3.23279        0.07863        0.12523
N         -4.33970        0.03865        0.17850
C         -1.87147       -0.07714        0.06290
C         -1.64707       -1.42381        0.16104
N         -0.84797       -2.55518        0.13957
C          0.49158       -2.28020       -0.08120
N          1.03117       -3.24049       -0.13229
N          1.11041       -1.15114       -0.22212
C          1.12256        0.14328       -0.17927
H          3.07795        2.67833       -0.21254
H          0.65761        3.24969        0.55659
H         -2.03663        3.28331       -0.02448
H         -4.99420        0.81528        0.06107
H         -4.93586       -0.77148        0.35970
H         -2.16348       -2.37819        0.35013
H          0.81519       -4.19521        0.15694
H          1.93043       -3.29996       -0.61281
