33
Coordinates from ORCA-job ./opt_b97-3c_parallel
N          5.46660       -0.68023        0.28064
C          4.38419       -0.90814       -0.00471
C          3.01353       -1.14409       -0.33363
C          2.42131       -2.31146       -0.70597
C          1.10116       -2.17440       -0.69854
C          0.76157       -0.89312       -0.36122
C         -0.57167       -0.41932       -0.00507
C         -1.62591       -1.34737        0.30501
N         -1.62076       -2.43003        0.53252
C         -2.84557       -0.57551        0.29887
C         -4.15490       -1.09839        0.57993
N         -5.18707       -1.51610        0.83606
C         -2.57311        0.78548       -0.09331
N         -3.35700        1.55765       -0.21677
C         -1.14616        0.87936       -0.25332
C         -0.53178        1.99419       -0.80834
N         -0.93423        2.84914       -1.38459
C          0.76219        2.39050       -0.53393
C          1.28919        1.91524        0.71107
N          2.14926        2.30619        1.28708
N          2.21262        0.96988        0.54369
C          1.98502       -0.16879       -0.14446
H          2.95303       -3.21960       -0.98136
H          0.40900       -2.95531       -1.00422
H         -2.55133       -2.80169        0.72091
H         -0.98633       -3.22662        0.54346
H         -3.33530        2.56868       -0.33934
H         -4.31947        1.31626        0.01949
H         -0.95499        3.70405       -1.94113
H         -1.73598        2.29736       -1.69274
H          1.25314        3.26485       -0.97262
H          2.87424        2.31041        2.00585
H          1.57062        3.12564        1.47076
