29
Coordinates from ORCA-job ./opt_b97-3c_parallel
N         -4.58642       -0.75038        0.47690
C         -3.35579       -0.31653        0.17504
C         -3.05706        0.92979       -0.17464
C         -1.70645        1.10729       -0.28525
N         -1.25407        2.32981       -0.57775
C          0.04881        2.46329       -0.21695
N          1.35949        2.54497        0.15742
C          2.01246        1.36160        0.45012
N          2.82970        2.05247        0.74391
C          1.55121        0.02516        0.09459
C          2.52178       -1.02578        0.02426
N          3.61750       -1.13456        0.10095
N          1.84646       -2.16564       -0.21276
C          0.51275       -2.00418       -0.28242
N          0.23334       -3.06034       -0.47272
C          0.26177       -0.60063       -0.08707
C         -1.10936       -0.11476       -0.05190
C         -2.19083       -1.00970        0.20452
H         -4.71517       -1.52976        1.12145
H         -5.32859       -0.07796        0.67213
H         -3.79056        1.72949       -0.27062
H         -0.26286        3.44997       -0.59881
H          3.17230        1.58203        1.58409
H          3.08514        3.03347        0.88945
H          4.27562       -0.38206       -0.10199
H          4.13666       -1.99899       -0.05594
H          0.67075       -3.96266       -0.67314
H         -0.74435       -3.18394       -0.74420
H         -2.08221       -2.05239        0.48394
