26
Coordinates from ORCA-job ./opt_b97-3c_parallel
N          3.62957        2.51567       -0.83446
C          2.64495        2.03348       -0.51340
C          1.43953        1.38546       -0.08422
C          0.37483        2.24198        0.33908
N         -0.54165        1.89117        1.16898
C         -1.65535        1.67078        0.56922
C         -1.92990        0.38548        0.01644
C         -3.25626       -0.03731       -0.28092
N         -4.34583        0.08072       -0.37687
N         -2.61963       -0.95890       -0.37690
C         -1.91354       -1.83191       -0.38006
C         -1.06735       -0.72695       -0.06759
C          0.36618       -0.91056        0.11481
C          0.87849       -2.17462        0.11230
C          2.23660       -2.02293        0.08661
N          3.17027       -2.61305        0.08585
N          2.57124       -0.68521        0.01320
C          1.41643       -0.00630        0.05102
H          0.41912        3.34131        0.28780
H         -2.48539        2.38844        0.65848
H         -4.57415        0.92644        0.14191
H         -5.09528       -0.58469       -0.19534
H         -2.49265       -2.73813       -0.61913
H          0.41315       -2.97193        0.68860
H          3.25829       -3.61801       -0.06455
H          4.10045       -2.28475        0.34609
