29
Coordinates from ORCA-job ./opt_b97-3c_parallel
N         -3.89841       -2.46580        0.76629
C         -3.08103       -1.74313        0.42778
C         -2.08342       -0.80237       -0.00728
C         -1.17969       -1.16645       -1.05020
N         -0.28441       -2.10903       -0.65291
C          0.86124       -1.61088       -0.05473
C          1.80363       -2.55579        0.20540
C          2.72288       -1.54358        0.30787
N          3.76390       -1.84377        0.53811
C          2.65023       -0.17599        0.24941
C          1.31290       -0.24229       -0.00680
C          0.54015        0.99044       -0.18595
C          1.17723        2.19869       -0.30013
N          2.05068        2.87070       -0.40424
N          0.37811        3.27051       -0.21367
C         -0.89634        2.75762        0.00423
C         -0.85456        1.31784        0.00106
C         -1.97033        0.53926        0.29861
N         -2.82374        1.03984        0.80152
H         -1.36893       -2.21513       -1.33109
H          1.95907       -3.39597       -0.47155
H          3.82750       -2.86105        0.57161
H          4.61437       -1.49637        0.97922
H          3.02377        0.43700        1.07035
H          2.82882        2.27329       -0.68402
H          2.37965        3.83011       -0.51543
H         -1.73329        3.45835        0.14871
H         -2.92659        1.43797        1.73468
H         -3.66733        0.48724        0.64283
