30
Coordinates from ORCA-job ./opt_b97-3c_parallel
N          2.87820       -2.83676        0.03769
C          2.46683       -1.77144        0.03592
C          1.98028       -0.42368        0.00755
C          2.76884        0.68901       -0.18435
N          3.84994        0.87382       -0.32526
C          2.08363        1.87718       -0.24258
C          0.79301        1.44967       -0.10249
N         -0.12788        2.43885        0.23470
C         -1.44346        2.07061        0.34416
N         -1.41266        3.13719        0.63881
C         -2.00298        1.71776       -0.92464
C         -2.39847        0.41466       -1.05615
C         -1.83129       -0.62611       -0.23120
C         -2.43704       -1.85350       -0.10992
N         -3.40598       -2.26674       -0.43630
C         -1.56240       -2.66346        0.56159
C         -0.42340       -2.03219        0.81554
C         -0.50663       -0.76639        0.32086
C          0.61954        0.03048        0.06615
H          4.29740       -0.03707       -0.22388
H          4.60406        1.54493       -0.46904
H          2.43771        2.76774        0.27928
H         -2.43213        3.16261        0.65752
H         -1.10651        3.96033        1.15867
H         -2.40521        2.49886       -1.56626
H         -3.21498        0.16911       -1.72949
H         -3.66392       -3.25248       -0.40577
H         -4.26774       -1.74897       -0.59662
H         -1.77973       -3.67912        0.89148
H          0.38148       -2.44846        1.41409
