23
Coordinates from ORCA-job ./opt_b97-3c_parallel
N          4.65331        0.38260       -0.73008
C          3.60217        0.01621       -0.47861
C          2.27385       -0.44581       -0.21275
C          1.90017       -1.76211       -0.22180
C          0.54184       -1.73016        0.02186
C          0.15366       -3.10759       -0.06323
N         -0.27547       -3.92526        0.61257
C          0.06003       -0.44450        0.15238
C         -1.36640       -0.11867        0.13765
C         -2.31079       -1.18725        0.11444
N         -2.95277       -0.28742       -0.06164
C         -3.43990        0.69282       -0.29885
C         -2.07675        1.03446       -0.07128
C         -1.72569        2.43615       -0.19678
N         -0.57177        3.12303        0.13200
C          0.17712        2.28003        0.82453
N          1.29682        1.79084        0.22247
C          1.18859        0.42309        0.07233
H          2.55694       -2.52414        0.19721
H         -2.64539       -2.23520        0.13832
H         -4.27774        1.35750       -0.55794
H         -2.33382        3.29748       -0.51027
H          0.72358        3.23448        0.78536
