27
Coordinates from ORCA-job ./opt_b97-3c_parallel
N         -5.23838        0.66389        0.22063
C         -4.12671        0.43058        0.09567
C         -2.73288        0.14324       -0.02174
C         -2.19804       -1.11281       -0.05293
C         -0.86003       -0.83327       -0.20786
C          0.07925       -1.85443       -0.56021
N         -0.08506       -2.93452       -0.73109
N          1.31949       -1.61335       -0.80341
C          2.18337       -1.38658        0.12716
N          2.81467       -2.22960        0.45988
C          2.62148       -0.07921        0.50814
C          1.98659        1.12790        0.02138
C          2.71569        2.27766        0.06656
C          1.66084        3.13349       -0.00503
N          1.01574        2.31094       -0.34786
C          0.57813        1.30036       -0.29519
C         -0.56907        0.52059       -0.19363
C         -1.76068        1.17151       -0.10530
H         -2.53120       -1.88005        0.64207
H         -0.53052       -2.47317       -1.52192
H          0.65602       -3.51984       -1.11212
H          2.12120       -2.94786        0.66020
H          3.35728       -2.09441        1.31033
H          3.57841        0.01417        1.01701
H          3.50464        2.42576        0.80116
H          1.76012        4.20383       -0.23998
H         -1.96315        2.23832       -0.08611
