29
Coordinates from ORCA-job ./opt_b97-3c_parallel
N          4.20408        3.04348       -0.72074
C          3.24144        2.46728       -0.50300
C          2.03370        1.77312       -0.19022
C          0.75577        2.28193       -0.57843
N         -0.33096        1.68038       -0.22009
C         -0.92555        0.56388        0.04634
C         -2.34501        0.55058        0.24132
C         -3.24798        1.66388        0.20519
N         -4.05383        2.47478        0.23581
C         -2.82084       -0.70825        0.44827
N         -4.05862       -1.16188        0.71329
C         -1.76374       -1.50178        0.36470
C         -0.62250       -0.77714        0.16616
C          0.71678       -1.32189        0.04173
C          1.01399       -2.66103       -0.07896
N          0.54142       -3.65437       -0.16602
C          2.38189       -2.74686       -0.08646
C          2.93577       -1.54586        0.02817
C          1.95834       -0.60980        0.12206
C          2.14240        0.65894        0.58586
H          0.51474        3.18301       -1.16239
H         -4.86847       -0.55846        0.57933
H         -4.32379       -2.11733        0.48369
H         -1.79906       -2.57869        0.50893
H          0.83778       -4.56807       -0.50548
H         -0.12601       -3.28991       -0.84288
H          2.95844       -3.66926       -0.16204
H          4.00496       -1.34633        0.05862
H          2.38683        0.78868        1.63726
