28
Coordinates from ORCA-job ./opt_b97-3c_parallel
N         -4.89658        0.62418        0.04136
C         -3.95252       -0.01447       -0.01750
C         -2.73502       -0.75818       -0.09118
C         -2.55902       -2.10609       -0.20285
C         -1.26764       -2.40283       -0.11577
C         -0.56061       -1.24410       -0.00006
C          0.86068       -1.10104        0.20995
C          1.67061       -2.23739        0.52576
N          2.94607       -1.80918        0.51270
C          3.08111       -0.50984        0.19005
N          4.18596       -0.41652        0.14935
C          1.75289        0.00992        0.01608
C          1.57750        1.23742       -0.74107
N          2.19790        2.03756       -1.17384
N          0.77721        2.30873       -0.34356
C         -0.42754        2.09761        0.29409
N         -0.85941        3.05122        0.64365
N         -1.20447        1.08049        0.41319
C         -1.45508       -0.13436        0.05946
H         -3.36198       -2.83252       -0.31736
H         -0.85399       -3.40672       -0.16817
H          1.64030       -3.31521        0.74703
H          4.89663       -1.09427        0.43052
H          4.70226        0.44645       -0.02653
H          2.39504        1.46556       -1.99473
H          2.28738        3.00721       -1.49205
H         -1.68338        3.17229        1.23400
H         -0.46079        3.98507        0.54179
