30
Coordinates from ORCA-job ./opt_b97-3c_parallel
N          4.90975        2.19084        0.47655
C          3.95181        1.60407        0.26828
C          2.76219        0.84807        0.04512
C          2.74474       -0.45994       -0.36141
C          1.39727       -0.74608       -0.37246
C          0.83510       -1.83883       -1.13638
N          1.43703       -2.63289       -1.61442
N          0.41164       -2.94333       -0.41340
C         -0.76295       -2.75312        0.29141
N         -0.94186       -3.67921        0.86189
N         -1.68159       -1.84345        0.28050
C         -1.69768       -0.55521        0.17162
C         -2.92968        0.17045        0.28197
C         -2.88481        1.54673        0.24587
N         -4.11333        2.09183        0.19003
C         -1.52090        1.68000        0.16966
C         -1.32232        3.09913        0.17040
N         -0.84347        3.68190       -0.68927
C         -0.79766        0.45644        0.06951
C          0.64506        0.35667       -0.01658
C          1.47156        1.40061        0.25752
H          3.46949       -1.17466        0.02347
H          1.40530       -3.41004       -2.27364
H          2.02831       -1.92252       -2.04504
H         -1.50970       -3.83878        1.69287
H         -0.29476       -4.46481        0.80312
H         -3.85397       -0.38532        0.42354
H         -4.22379        3.06933       -0.07940
H         -4.89617        1.57337       -0.20528
H          1.26332        2.40958        0.59592
