31
Coordinates from ORCA-job ./opt_b97-3c_parallel
N         -2.42079       -3.88297       -0.50473
C         -1.69260       -3.01403       -0.37169
C         -0.80968       -1.89856       -0.16558
C          0.53155       -2.05909        0.34005
N          0.98191       -3.06695        0.46027
N          1.49100       -1.92542       -0.59064
C          2.14286       -0.77036       -0.82975
N          2.92369       -1.28538       -1.42202
C          1.87650        0.39626       -0.01464
C          2.92278        1.33787        0.23089
N          4.00497        1.44524        0.06084
N          1.97157        1.75521        0.64045
C          1.01647        2.25261        0.93708
C          0.64295        0.97708        0.40832
C         -0.68953        0.61861        0.20341
C         -1.70727        1.62781        0.27877
C         -2.00180        3.01528        0.49155
N         -1.69719        3.56911       -0.46202
C         -2.93112        0.95460       -0.08074
N         -4.01664        0.86809       -0.29125
N         -2.69054       -0.34675       -0.31923
C         -1.32968       -0.54781       -0.13711
H          1.77290       -3.69738        0.32322
H          0.31815       -3.58788        1.03440
H          3.32466       -1.98697       -2.04735
H          3.60176       -0.52020       -1.40589
H          3.92825        2.42612        0.33095
H          4.90134        1.12575        0.42931
H          1.13024        3.26115        1.36446
H         -4.86906        0.30436       -0.29992
H         -4.31940        1.81440       -0.53194
