29
Coordinates from ORCA-job ./opt_b97-3c_parallel
N         -3.16161       -2.89834       -0.17659
C         -3.18885       -1.95789        0.47124
C         -2.33601       -0.81162        0.29298
C         -0.90363       -0.85700        0.29426
N         -0.28827       -2.02035        0.57183
C          0.97092       -2.11387        0.06870
N          0.97828       -3.17336        0.39483
N          2.21515       -2.00982       -0.49212
C          2.65803       -0.73884       -0.81178
N          3.59111       -1.13024       -1.26380
C          2.28136        0.44159       -0.06056
C          3.23065        1.40407        0.13167
N          2.56150        2.48828        0.46700
C          1.19840        2.29954        0.49578
C          0.94091        0.93893        0.16462
C         -0.37847        0.47072        0.08021
C         -1.48394        1.30017       -0.05151
C         -1.59723        2.70942       -0.30332
N         -1.64775        3.83044       -0.51567
C         -2.68107        0.49924        0.05046
N         -3.73647        0.82483       -0.03465
H          0.24746       -3.87867        0.27405
H          1.63202       -3.58582        1.06225
H          4.20371       -1.78374       -1.75633
H          3.88092       -0.20654       -1.59374
H          4.05519        2.10923        0.32330
H          1.09823        3.36191        0.77015
H         -3.96844        1.81719        0.01986
H         -4.59051        0.35296       -0.33277
