32
Coordinates from ORCA-job ./opt_b97-3c_parallel
N         -3.27209        3.62576        1.49684
C         -2.53481        2.89946        1.01283
C         -1.64571        1.95227        0.40437
C         -1.03135        2.28026       -0.84908
C          0.32250        2.08566       -0.97098
C          1.06061        1.04168       -0.30544
C          2.41900        1.20111       -0.15813
C          3.26856        2.32548       -0.42474
N          3.92820        3.22487       -0.67047
C          2.94693       -0.04006        0.34880
N          3.98519       -0.31255        0.61676
C          1.83626       -0.95771        0.41258
C          1.91575       -2.31168        0.87225
N          1.91896       -3.40265        1.21177
C          0.65958       -0.23740        0.00087
C         -0.60389       -0.91291       -0.27142
C         -0.75438       -2.25232       -0.54163
N         -0.52509       -3.31739       -0.75844
N         -2.03766       -2.65838       -0.57387
C         -2.81071       -1.53302       -0.27858
N         -3.87751       -1.82720       -0.22882
C         -1.92937       -0.41021       -0.11449
C         -2.38061        0.78376        0.39734
H         -1.41510        3.18014       -1.32465
H          0.87884        2.84632       -1.51316
H          4.60306        0.49511        0.53024
H          4.51823       -1.02418        1.11637
H          0.42215       -3.42742       -0.38684
H         -0.70506       -4.19572       -1.24932
H         -4.51530       -1.03080       -0.17697
H         -4.48261       -2.65051       -0.21672
H         -3.39040        0.76237        0.81251
