32
Coordinates from ORCA-job ./opt_b97-3c_parallel
N         -4.75855       -1.16895       -0.46428
C         -3.62331       -1.27823       -0.39889
C         -2.19878       -1.40951       -0.36895
C         -1.52996       -2.56780       -0.60745
C         -0.22080       -2.35021       -0.57266
C          0.03112       -1.02613       -0.35006
C          1.26582       -0.48800        0.19616
C          2.32118       -1.33720        0.66851
N          2.40955       -2.38781        1.00280
C          3.56092       -0.73966        0.72667
C          3.34294        0.41467        0.01370
N          4.25281        0.97835       -0.25924
C          1.96476        0.67117       -0.25545
C          1.53141        1.66890       -1.20054
C          0.23126        2.12490       -1.19267
C         -0.47365        1.93912        0.05738
N         -0.41232        2.97559        0.44172
C         -1.52308        0.97933        0.27068
C         -2.75262        1.36415        0.90367
N         -3.70334        1.66642        1.46114
C         -1.23516       -0.35992       -0.19636
H         -1.99717       -3.53183       -0.80160
H          0.53163       -3.10978       -0.76519
H          2.97584       -2.92538        1.65612
H          1.43491       -2.58854        1.21827
H          4.49228       -1.30410        0.62923
H          5.23578        1.04149       -0.00186
H          3.90099        1.93151       -0.32462
H          2.27346        2.11941       -1.85221
H         -0.11249        2.81351       -1.96116
H         -1.37450        3.11917        0.74474
H         -0.10973        3.85570        0.02729
