33
Coordinates from ORCA-job ./opt_b97-3c_parallel
N         -0.01529       -4.45476       -0.09617
C          0.42180       -3.40129       -0.03224
C          0.89616       -2.05135        0.04995
C          2.27738       -1.73729        0.31601
N          3.09262       -2.47157        0.45641
C          2.37733       -0.29966        0.31647
C          3.64171        0.35210        0.49994
N          4.62652        0.90741        0.65690
C          1.10976        0.21807        0.13926
C          0.92805        1.62500       -0.20770
C          1.86373        2.63908       -0.61259
N          2.04306        2.74308       -1.73632
C         -0.25768        2.44100        0.04270
N         -0.79073        3.41678        0.03853
N         -1.44388        2.27811        0.77001
C         -1.81686        1.03622        1.12066
N         -2.52650        1.54555        1.81112
C         -2.07494        0.20152       -0.02412
C         -3.30883       -0.23157       -0.45184
N         -4.41818       -0.19153       -0.49907
N         -3.24752       -1.38784       -1.13391
C         -1.90861       -1.78056       -1.10619
C         -1.14284       -0.77896       -0.41618
C          0.18721       -0.87227       -0.04651
H          3.15072       -3.48842        0.40845
H          4.05055       -2.13564        0.55598
H         -0.06846        3.64213       -0.64733
H         -1.17327        4.31769        0.32791
H         -2.88495        0.90175        2.52027
H         -2.52454        2.45213        2.29099
H         -5.06650       -0.89415       -0.86802
H         -4.98298        0.66012       -0.46072
H         -1.86318       -2.76031       -1.60920
