23
Coordinates from ORCA-job ./opt_b97-3c_parallel
N         -0.45816        2.78823       -0.72473
C         -0.09545        1.74181       -0.74953
N          0.61629        2.20704        0.33112
C          1.60729        1.33939        0.77242
C          1.71839       -0.02201        0.29737
C          2.94936       -0.71972        0.45623
N          2.22967       -1.43920       -0.01404
C          1.46660       -2.18166       -0.36367
C          0.75900       -0.95634       -0.19329
C         -0.69797       -0.94898       -0.25792
C         -1.47197       -2.06599       -0.33391
C         -2.71244       -1.71182       -0.02514
C         -2.81397       -0.41094        0.21868
C         -1.58750        0.14636        0.03426
N         -1.24586        1.48850       -0.04155
H         -1.34351        3.02670       -1.17176
H          0.20924        3.48156       -1.06213
H          2.21874        2.07884        1.31092
H          3.98148       -0.58864        0.81485
H          1.48421       -3.25766       -0.59845
H         -1.13835       -3.07350       -0.57345
H         -3.54828       -2.40668        0.02365
H         -3.72472        0.11722        0.49366
