32
Coordinates from ORCA-job ./opt_b97-3c_parallel
N          5.33382       -0.33569       -0.46570
C          4.22001       -0.13423       -0.30255
C          2.81500        0.10503       -0.13416
C          2.41787        1.33421        0.47801
C          0.99922        1.35011        0.48701
C          0.34148        2.40046        1.20764
C         -1.05318        2.62913        1.00582
C         -1.34064        2.67888       -0.40193
N         -1.83596        3.58652       -0.79274
C         -2.16706        1.60133       -0.88497
C         -2.04815        0.26700       -0.36010
C         -3.07628       -0.61603       -0.52838
C         -2.50861       -1.80693       -0.15589
N         -3.25494       -2.62297       -0.15745
C         -1.16395       -1.72582        0.12538
C         -0.35670       -2.79954        0.62375
N          0.25879       -3.66854        1.04043
C         -0.79220       -0.34861       -0.02521
C          0.50692        0.16419        0.00164
C          1.65736       -0.61087       -0.41472
N          1.87883       -1.57585       -0.91063
H          3.07673        2.11121        0.85354
H          0.90718        3.06688        1.85152
H         -1.42738        3.45251        1.60959
H         -1.48864        4.49192       -0.48222
H         -2.85226        3.65015       -0.80394
H         -3.02049        1.79860       -1.53718
H         -4.08795       -0.33918       -0.23107
H         -4.04445       -2.88908       -0.74291
H         -2.76603       -3.48196        0.08892
H          2.78301       -1.77750       -1.33389
H          1.58570       -2.42716       -0.43420
