32
Coordinates from ORCA-job ./opt_b97-3c_parallel
N         -0.89765       -3.62109       -1.12952
C         -0.04682       -3.26858       -0.45259
C          0.78740       -2.12938       -0.22022
C          2.14938       -2.53659       -0.11044
C          3.08842       -1.58839        0.16490
C          2.25382       -0.50327        0.19659
C          2.70381        0.69222        0.86147
C          2.06845        1.95750        0.59762
N          2.75898        2.67078        1.08315
C          1.86941        2.15779       -0.81122
C          0.58311        2.03937       -1.27115
C         -0.40777        1.30572       -0.52683
C         -1.74696        1.53040       -0.67421
N         -2.24986        2.36468       -1.19925
C         -2.31734        0.39694       -0.00112
C         -3.73491        0.19563        0.09148
N         -4.86582        0.06112        0.19054
C         -1.44615       -0.52420        0.53338
N         -1.67970       -1.31589        1.59689
C         -0.25778        0.05366        0.15534
C          0.84929       -0.77386       -0.03241
H          2.43564       -3.58087       -0.21011
H          4.02655       -1.55561       -0.38356
H          3.63608        0.62535        1.42794
H          3.60734        2.81796        1.62659
H          2.43359        3.59009        0.78983
H          2.52268        2.86167       -1.32227
H          0.26865        2.67168       -2.09569
H         -3.21555        2.45835       -0.88876
H         -1.74925        3.18471       -0.86196
H         -2.62576       -1.65262        1.76849
H         -1.04525       -2.08651        1.79687
