27
Coordinates from ORCA-job ./opt_b97-3c_parallel
N          5.63183        0.57720        0.12448
C          4.53563        0.27083        0.02857
C          3.17346       -0.12361       -0.13025
C          2.77805       -1.34212       -0.59356
C          1.41010       -1.22193       -0.52530
C          0.56474       -2.27316       -1.03222
N         -0.12275       -3.01012       -0.08213
C         -1.30465       -2.43191        0.32702
N         -1.72960       -3.10239        1.09146
N         -1.80669       -1.35778       -0.18408
C         -1.59591       -0.08916       -0.07094
C         -2.55202        0.88814        0.09040
C         -3.98252        0.85338        0.13780
N         -4.67541        0.06064       -0.30671
C         -2.06133        2.15477        0.27758
C         -0.71539        1.92263        0.24767
C          0.09915        3.08897        0.38776
N          0.72150        4.03881        0.51220
C         -0.32696        0.56141        0.00697
C          0.96822        0.03352       -0.10842
C          2.09959        0.75043        0.16552
H          3.26437       -1.78753       -1.45992
H          1.25250       -3.09583       -1.28352
H         -1.38355       -4.03034        1.33329
H         -2.58098       -2.96575        1.63553
H         -2.49417        3.01079       -0.23995
H          2.23854        1.75504        0.54182
