26
Coordinates from ORCA-job ./opt_b97-3c_parallel
N          1.43359        4.41319       -0.97405
C          0.96559        3.45795       -0.55695
C          0.34643        2.28543       -0.01657
C          0.90966        1.55307        1.06502
N          2.00220        0.84333        0.67982
C          1.65481       -0.38448        0.14872
C          2.61893       -1.32029       -0.13176
C          4.04877       -1.35980       -0.12139
N          5.11365       -1.72617       -0.31932
C          1.96395       -2.49229       -0.38052
C          0.65236       -2.34233       -0.24981
C          0.37244       -1.04097        0.04569
C         -0.98204       -0.49865        0.22090
C         -2.02929       -1.45470        0.34130
C         -3.20772       -0.67261        0.30490
C         -4.50528       -1.26222        0.38943
N         -5.54094       -1.74380        0.42648
C         -2.96302        0.65668        0.13594
C         -1.59242        0.75919        0.11495
C         -0.97033        2.00921       -0.26618
H          1.90797        1.96603        1.27889
H          2.45006       -3.43196       -0.63548
H         -0.06809       -3.13950       -0.40829
H         -1.96795       -2.53412        0.42918
H         -3.58129        1.25329       -0.53173
H         -1.59348        2.77153       -0.72537
