31
Coordinates from ORCA-job ./opt_b97-3c_parallel
N         -0.18901       -4.43964        1.20361
C         -0.03257       -3.38296        0.80035
C          0.13765       -2.07297        0.24538
C          1.38748       -1.54401        0.45384
C          1.82757       -0.29430        0.05431
C          3.15122        0.06383        0.03264
N          4.08866       -0.50354        0.17329
C          3.21385        1.40841       -0.18005
C          2.00820        1.95793       -0.26687
N          1.86677        3.26935       -0.52189
C          1.10088        0.94231       -0.13374
C         -0.32118        1.10787        0.14085
C         -0.87992        2.36665        0.54244
C         -2.24640        2.41487        0.66563
C         -2.51537        1.14694        0.21958
C         -3.93933        1.04667        0.10159
N         -4.59930        0.17750       -0.23889
C         -1.40258        0.30491       -0.07817
N         -1.65716       -0.86757       -0.69235
C         -0.55477       -1.65011       -0.93929
N         -1.37149       -2.16728       -1.48634
H          2.12409       -2.18040        0.94168
H          5.02727       -0.10555        0.18039
H          4.20390       -1.50242        0.01142
H          4.14307        1.97036       -0.27740
H          1.02300        3.63791       -0.95615
H          2.66069        3.82739       -0.83416
H         -0.25446        3.21396        0.79384
H         -2.70612        2.81395        1.56854
H         -1.04751       -3.13074       -1.39408
H         -2.14390       -2.20218       -2.15290
