31
Coordinates from ORCA-job ./opt_b97-3c_parallel
N         -5.40826        0.91382       -0.77840
C         -4.33447        0.57128       -0.58620
C         -2.99836        0.11737       -0.37422
C         -2.70776       -1.22300       -0.02201
C         -1.29720       -1.20775        0.14164
C         -0.67370       -2.33806        0.78876
N         -1.17646       -3.18706        1.28891
C          0.75816       -2.43751        0.80612
C          1.30342       -2.23822       -0.50887
N          1.98638       -3.03095       -0.86937
C          2.17868       -1.09793       -0.56626
C          1.74117        0.16626       -0.04005
C          2.61609        1.22131        0.05182
C          4.02075        1.41005       -0.15101
N          4.75639        1.42019       -1.02610
C          2.00528        2.40066        0.39859
C          0.68388        2.04773        0.37427
C         -0.24776        3.07625        0.72797
N         -0.97473        3.90090        1.04034
C          0.41359        0.65517        0.14350
C         -0.84020        0.08169       -0.07399
C         -1.88558        0.90795       -0.42504
H         -3.40603       -2.03736        0.14596
H         -2.05394       -2.86858        1.69501
H         -1.10940       -4.18593        1.47538
H          1.16966       -3.27062        1.37824
H          1.71546       -3.96662       -0.57193
H          3.00306       -3.02847       -0.93013
H          3.18147       -1.14084       -0.99996
H          2.33175        3.35260       -0.01904
H         -1.77546        1.63983       -1.22276
