26
Coordinates from ORCA-job ./opt_b97-3c_parallel
N          1.32977       -3.21751        0.08174
C          0.93125       -2.19726       -0.06865
C         -0.35217       -1.94109        0.51003
C         -1.09720       -0.75287        0.16246
N         -2.37586       -0.65234        0.33106
C         -2.99655        0.40104       -0.09297
N         -4.08858        0.41033        0.06861
C         -1.95886        1.21140       -0.44616
C         -0.78770        0.53993       -0.24516
C          0.48934        1.25115       -0.18830
C          0.64734        2.60730       -0.17534
C          1.90816        2.87245        0.15183
C          2.62546        1.77050        0.32904
C          1.80101        0.72796        0.06182
C          2.20432       -0.59373       -0.29463
N          1.46196       -1.41876       -0.94449
H          1.03655       -3.97120       -0.53773
H          2.34809       -3.24068        0.10298
H         -0.86968       -2.74861        1.02380
H         -4.68014        1.23588       -0.02263
H         -4.71469       -0.36398        0.28788
H         -2.03670        2.28834       -0.31990
H         -0.11035        3.35663       -0.38726
H          2.30985        3.87877        0.25468
H          3.67966        1.71684        0.59217
H          3.27891       -0.81074       -0.19280
