27
Coordinates from ORCA-job ./opt_b97-3c_parallel
N         -4.59033        0.24166       -0.83246
C         -3.52574        0.03187       -0.47276
C         -2.20966       -0.23604        0.01582
C         -1.69714        0.72831        0.83136
C         -0.79208        1.66772        0.42610
C         -1.00718        3.07357        0.34874
N          0.08402        2.99137        0.10992
C          1.15113        2.69732       -0.06053
C          0.52281        1.43707        0.16805
C          1.22635        0.24486        0.12270
C          2.63864        0.17744       -0.03724
C          3.01683       -1.12572       -0.04892
N          4.25319       -1.63511       -0.14847
C          1.90565       -1.84749        0.07297
C          0.79199       -1.05694        0.17325
N         -0.33129       -1.70025        0.21756
C         -1.51683       -1.46558       -0.25447
N         -1.62112       -2.42690       -0.78526
H         -1.95309        0.69127        1.88726
H         -1.83637        3.77961        0.50530
H          2.00022        3.35923       -0.28764
H          3.28928        1.04271       -0.11766
H          5.06059       -1.06862        0.10531
H          4.43614       -2.59186        0.14840
H          1.88795       -2.93576        0.10136
H         -2.55415       -2.23331       -1.14358
H         -1.04041       -2.67718       -1.58280
