26
Coordinates from ORCA-job ./opt_b97-3c_parallel
N         -2.03551        1.78725       -1.03346
C         -1.46628        1.58739       -0.10746
C         -0.51940        2.65632        0.02965
C          0.38333        2.32255        1.08123
N          1.61820        2.14514        0.61305
C          2.00121        0.97326        0.06382
N          3.30894        0.71210       -0.26545
C          3.39387       -0.63513       -0.59163
N          2.14695       -1.23626       -0.44676
C          1.26196       -0.25415       -0.07448
C         -0.15022       -0.57745        0.12451
C         -0.56635       -1.95498        0.19938
N         -0.45775       -3.05301        0.20969
N         -1.91454       -2.02872        0.34135
C         -2.37293       -0.71860        0.33430
N         -3.46939       -0.86253        0.38110
C         -1.28109        0.18937        0.21287
H         -2.07189        1.61925       -2.04079
H         -2.52190        2.67436       -0.88880
H         -0.18577        3.31082       -0.77687
H          1.16048        3.10463        1.08353
H          4.38584       -1.01940       -0.87803
H          0.45352       -3.34248       -0.14602
H         -0.93146       -3.91125        0.49355
H         -4.06991       -0.09128        0.08616
H         -4.10515       -1.62337        0.62771
