30
Coordinates from ORCA-job ./opt_b97-3c_parallel
N          0.16690        3.95851        0.27946
C         -0.18914        2.92674        0.10151
C         -1.51999        2.56932       -0.29467
C         -2.09379        1.31423       -0.44649
C         -1.66692       -0.06765       -0.20393
C         -2.66275       -1.01661       -0.22109
N         -3.75946       -1.06809       -0.34434
C         -2.09540       -2.23144        0.03495
C         -0.77993       -2.14989        0.19240
N         -0.06496       -3.23991        0.52150
C         -0.45174       -0.82848        0.03974
C          0.89905       -0.30320        0.02215
N          1.93215       -1.17603        0.02629
C          3.17285       -0.54504       -0.00746
N          4.05981       -1.20493       -0.06751
C          2.78678        0.75952        0.02148
C          1.47914        0.91069        0.02073
N          0.71499        1.96238        0.07135
H         -0.70594        4.48477        0.21259
H          0.79397        4.57185        0.80260
H         -2.18376        3.41624       -0.45644
H         -3.14321        1.38945       -0.71987
H         -4.38284       -1.87379       -0.29089
H         -4.35228       -0.24867       -0.22110
H         -2.65406       -3.16405        0.13939
H          0.88203       -3.37670        0.17779
H         -0.51753       -4.15504        0.53924
H          5.02874       -0.92209       -0.23011
H          4.08089       -2.22686       -0.08572
H          3.48879        1.59100        0.04930
