27
Coordinates from ORCA-job ./opt_b97-3c_parallel
N         -5.81225        0.53108        0.03299
C         -4.69927        0.29824       -0.08252
C         -3.30285       -0.00774       -0.18268
C         -2.91945       -1.31461       -0.29166
C         -1.56104       -1.14065       -0.29826
C         -0.64506       -2.22557       -0.42248
N          0.23217       -2.88134       -0.50541
C          1.03758       -2.17491       -0.25132
C          1.96578       -1.13503        0.05289
C          3.32308       -1.46070        0.37334
N          4.39403       -1.72891        0.66908
C          1.47972        0.22969       -0.04128
C          2.35261        1.27640        0.03824
C          3.68152        1.80450        0.16268
N          4.57427        1.73983       -0.54882
C          1.54691        2.44938       -0.07425
N          0.75311        1.66867       -0.12696
C          0.13110        0.74672       -0.17848
C         -1.13700        0.16788       -0.21280
C         -2.25066        0.96237       -0.14552
N         -2.40125        2.05563       -0.05417
H         -3.38044       -2.08691        0.32032
H         -1.19568       -3.17686       -0.51342
H          1.54978       -3.14982       -0.17809
H          1.55973        3.54961       -0.10327
H         -1.54957        2.50903        0.27201
H         -3.17224        2.43808        0.49046
