35
Coordinates from ORCA-job ./opt_b97-3c_parallel
N          1.07490       -4.97529       -0.18488
C          0.63629       -3.92030       -0.16557
C          0.07425       -2.60313       -0.10288
C         -1.02841       -2.24844       -0.95034
C         -1.86120       -1.07336       -0.77889
C         -3.12824       -1.18057       -1.43846
N         -4.11911       -1.28372       -1.99858
C         -1.50783        0.15578       -0.05583
C         -2.46381        1.09657        0.27992
C         -3.89780        1.19816        0.32856
N         -5.00154        1.48798        0.25942
C         -1.78197        2.30008        0.70298
N         -2.16444        3.27477        1.07187
C         -0.41730        2.11585        0.58183
C          0.63581        3.01741        0.95997
N          1.45579        3.73908        1.29691
C         -0.21336        0.77072        0.11371
C          1.08504        0.21809       -0.20498
C          2.19712        0.86533       -0.65517
N          2.60227        1.81264       -1.05125
C          3.15484       -0.19861       -0.58160
C          4.53613       -0.41574       -0.90231
N          5.57131       -0.01871       -1.18015
C          2.75959       -1.41838       -0.08882
C          1.44434       -1.10542        0.15180
C          0.59805       -1.86093        0.90689
N          0.66253       -1.67498        2.23512
H         -1.39092       -3.02757       -1.61648
H         -3.16622        3.43402        0.97052
H         -1.77107        4.11925        1.48558
H          2.55922        2.62475       -0.43656
H          3.50073        1.85653       -1.53035
H          3.33933       -1.95375        0.66323
H          0.43293       -2.44077        2.86663
H          1.44937       -1.16877        2.63877
