30
Coordinates from ORCA-job ./opt_b97-3c_parallel
N          1.19850       -3.68541       -1.82603
C          0.95977       -2.70432       -1.29048
C          0.66355       -1.49129       -0.58360
C          1.82242       -0.72594       -0.57943
C          1.99442        0.41646        0.29830
C          3.40195        0.36893        0.60571
N          4.49250        0.70492        0.67240
C          0.98912        1.33891        0.57618
N          1.39410        2.21966        1.11392
C         -0.06915        1.53778       -0.39313
C         -0.54391        2.75702       -0.77447
C         -1.86226        2.68406       -0.88281
C         -2.34415        1.48484       -0.58193
N         -3.64789        1.18358       -0.68355
C         -1.25039        0.74024       -0.24293
C         -1.22008       -0.45753        0.55401
C         -2.36870       -1.08093        1.12129
C         -2.04541       -2.35632        1.45602
C         -0.78706       -2.59407        1.10305
C         -0.21680       -1.47551        0.55918
H          2.70416       -1.11651       -1.09338
H          0.84130        3.06998        1.20291
H          2.37392        2.49862        1.13318
H          0.06021        3.63582       -0.98689
H         -2.48032        3.52081       -1.20147
H         -3.93940        0.21207       -0.77296
H         -4.25902        1.75000       -1.26847
H         -3.35927       -0.64164        1.14907
H         -2.71810       -3.07501        1.91765
H         -0.27451       -3.54199        1.25090
