24
Coordinates from ORCA-job ./opt_b97-3c_parallel
N          4.47807        1.06704       -0.00661
C          3.38949        0.71838       -0.00610
C          2.02721        0.23778       -0.00468
C          1.27304        1.40491       -0.00392
C         -0.14761        1.62037       -0.00282
C         -0.53005        2.99682       -0.00197
N         -1.52982        2.50660       -0.00168
C         -2.38492        1.79199       -0.00134
C         -1.28207        0.87911       -0.00221
C         -1.58823       -0.52576       -0.00193
N         -2.92183       -0.87393       -0.00090
C         -3.01477       -2.24743       -0.00056
N         -1.74959       -2.52414       -0.00140
C         -0.80446       -1.64296       -0.00234
C          0.58745       -1.97841       -0.00331
C          1.73041       -1.18682       -0.00476
N          2.58147       -1.90155       -0.00552
H          1.80272        2.35977       -0.00383
H         -0.00643        3.96459       -0.00147
H         -3.48534        1.80075       -0.00073
H         -3.86159       -2.94988        0.00040
H          0.70319       -3.06658       -0.00344
H          2.65364       -2.91715       -0.00649
H          3.53522       -1.54313       -0.00608
