29
Coordinates from ORCA-job ./opt_b97-3c_parallel
N         -3.79296        2.02891       -0.42267
C         -3.24820        1.05651       -0.17361
C         -2.52387       -0.14410        0.11394
C         -3.16287       -1.34443        0.11108
C         -2.26742       -2.31524        0.17464
C         -1.01820       -1.77562        0.17928
N          0.10810       -2.55722        0.34288
C          1.28415       -2.00327       -0.05924
N          1.82316       -2.92586        0.23438
N          2.38415       -1.30804       -0.49436
C          2.23477        0.04888       -0.71544
N          3.26187        0.11554       -1.12647
C          1.19492        0.86378       -0.11400
C          1.53143        2.23964        0.09535
N          2.43741        2.85788       -0.04623
C          0.44492        2.82132        0.65659
C         -0.52195        1.92262        0.75318
C         -0.13913        0.69938        0.25858
C         -1.08965       -0.33061        0.16646
H         -4.24183       -1.48600        0.06768
H         -2.49966       -3.37884        0.17928
H          2.72418       -3.31478       -0.04759
H          1.56825       -3.46290        1.06711
H          3.85362       -0.04401       -1.94502
H          3.18503        1.13430       -1.05735
H          2.05535        3.80481       -0.05072
H          3.33999        2.93208        0.42412
H          0.39175        3.83474        1.05568
H         -1.44438        2.13099        1.28961
