29
Coordinates from ORCA-job ./opt_b97-3c_parallel
N         -4.93587       -0.83710       -0.48886
C         -3.91047       -0.33347       -0.48036
C         -2.64152        0.32525       -0.43677
C         -2.41335        1.65847       -0.58536
C         -1.14560        1.93618       -0.30632
C         -0.46879        0.78557       -0.01049
C          0.97574        0.68604        0.18220
C          1.78654        1.86762        0.26305
N          1.75132        2.97006        0.33699
C          3.09822        1.50129        0.15150
C          3.19002        0.18890       -0.01746
C          1.95140       -0.37636        0.02076
C          1.70826       -1.75783       -0.34801
N          2.41226       -2.48809       -0.78557
C          0.56818       -2.45388        0.18365
C         -0.21805       -1.90097        1.13714
C         -1.30584       -1.59439        0.39220
C         -1.41503       -0.29433       -0.03860
H         -3.16474        2.39197       -0.86708
H         -0.72342        2.93501       -0.35336
H          2.33591        3.60937        0.87145
H          0.88441        2.85410        0.85792
H          3.96225        2.16875        0.16296
H          4.12369       -0.35419       -0.14517
H          2.55720       -3.49350       -0.85749
H          3.12750       -2.04135       -1.35562
H          0.45754       -3.51671       -0.03550
H         -0.32530       -2.36887        2.11226
H         -2.14613       -2.28047        0.34279
