29
Coordinates from ORCA-job ./opt_b97-3c_parallel
N         -2.68699       -1.42949       -2.01807
C         -2.69455       -1.71894       -0.91055
C         -1.51158       -1.26783       -0.23360
C         -0.67447       -2.34458        0.00311
C          0.21591       -2.36070        1.13025
C          1.48811       -1.85459        0.98906
C          1.91197       -0.75147        0.27878
C          3.21460       -0.45035       -0.02058
N          4.21271       -0.92554        0.05304
N          3.40527        0.78641       -0.51863
C          2.15153        1.39823       -0.51984
N          2.41145        2.40661       -0.89772
C          1.19823        0.44136       -0.02929
C         -0.15583        0.79586        0.30596
C         -0.59931        2.15464        0.38393
C         -1.95237        2.33466        0.53072
C         -2.33906        1.02995        0.33433
C         -3.76170        1.15012        0.20763
N         -4.39539        0.55881        0.95386
C         -1.29194        0.05781        0.28639
H         -1.03895       -3.33558       -0.26654
H          0.18070       -3.29951        1.67682
H          2.26342       -2.44436        1.47032
H          4.10375       -1.90778        0.31111
H          5.22047       -0.78495       -0.03816
H          3.08307        3.03912       -1.33662
H          1.49554        2.81030       -1.10095
H          0.09720        2.98486        0.35448
H         -2.33708        2.92125        1.36554
