26
Coordinates from ORCA-job ./opt_b97-3c_parallel
N         -4.98594        1.33845       -0.27077
C         -3.98829        0.78600       -0.21196
C         -2.72257        0.13254       -0.11380
C         -2.58429       -1.18021        0.40701
C         -1.17803       -1.34417        0.45646
C         -0.50283       -2.30331        1.13937
C         -0.11349       -3.17661        0.17956
C          1.13192       -3.06795       -0.52070
N          2.01951       -2.07535       -0.30159
C          1.90951       -0.77570        0.06662
N          3.06745       -0.02197        0.13381
C          2.72487        1.31689        0.16883
N          3.63346        1.94711        0.24297
C          1.30084        1.43987        0.07494
C          0.62125        2.69706        0.10969
N          0.11650        3.72159        0.13595
C          0.76052        0.10452        0.02841
C         -0.59963       -0.19324       -0.01932
C         -1.53449        0.74022       -0.40974
H         -3.35823       -1.83405        0.79767
H         -0.87240       -2.66465        2.09757
H         -0.69442       -4.07812       -0.00005
H          1.25904       -4.04984       -1.00323
H          3.44009        2.94733        0.15547
H          4.64428        1.88154        0.37766
H         -1.42739        1.28730       -1.34477
