25
Coordinates from ORCA-job ./opt_b97-3c_parallel
N         -3.97422       -1.16201        0.39513
C         -2.94119       -0.79979        0.22832
C         -1.72292       -1.41546        0.08356
C         -0.82829       -0.39568       -0.06619
C          0.56893       -0.66978       -0.38804
C          1.04148       -1.91562       -0.67042
C          2.34414       -1.93457       -0.42296
C          2.80652       -0.76990        0.01527
N          4.08693       -0.54081        0.34150
C          1.73232        0.06278        0.06743
C          1.69250        1.23034        0.91169
N          0.88111        2.24204        0.59456
C          0.31752        2.28000       -0.61228
N         -1.03462        2.08140       -0.65021
C         -1.51657        0.86609       -0.17854
N         -2.84471        0.56558        0.00395
H         -4.82782       -0.65145        0.62910
H         -4.24745       -2.14658        0.38762
H         -1.47027       -2.31190        0.64797
H          0.46495       -2.75715       -1.04757
H          2.96817       -2.81520       -0.56715
H          4.81840       -1.19610        0.06803
H          4.47658        0.39983        0.30458
H          1.79307        2.10254        1.57410
H         -0.26534        3.14325       -0.97097
