36
Coordinates from ORCA-job ./opt_b97-3c_parallel
N          2.06455       -3.17527       -2.55089
C          1.77959       -2.38245       -1.77789
C          1.46543       -1.38002       -0.78911
C          0.94664       -1.78673        0.50518
N          1.39254       -2.68776        0.98542
C         -0.49037       -1.62945        0.62875
C         -1.28342       -2.47583        1.48542
N         -1.90084       -3.11870        2.20253
C         -1.08374       -0.47587       -0.02023
C         -2.48116       -0.41977       -0.35563
C         -3.39851       -1.51864       -0.48799
N         -4.13234       -2.38422       -0.62519
C         -2.77726        0.96873       -0.62400
N         -3.80586        1.24533       -0.93485
C         -1.63769        1.72226       -0.38546
C         -1.74951        3.14038       -0.58242
N         -1.68647        4.22840       -0.92042
C         -0.58898        0.80510       -0.02312
C          0.69484        1.27830        0.46153
C          0.90394        2.58204        1.00116
C          2.19970        2.93708        1.27160
C          2.83376        1.85829        0.69415
N          3.89414        2.16890        0.71045
C          1.95733        0.80253        0.26076
C          2.39113       -0.28299       -0.60058
N          3.36696       -0.17065       -1.11619
H          2.12932       -3.20427        0.50605
H          0.77461       -3.38694        1.39633
H         -4.59975        0.60972       -1.00478
H         -4.16837        2.18678       -1.07712
H          0.08597        3.24460        1.25343
H          2.46041        3.29691        2.26900
H          4.58657        2.58467        1.32890
H          4.17639        1.20188        0.55847
H          3.70084       -0.69341       -1.92487
H          3.43853        0.81847       -1.35222
