28
Coordinates from ORCA-job ./opt_b97-3c_parallel
N         -5.25378       -1.40346        0.33247
C         -4.23412       -0.89025        0.27553
C         -2.94081       -0.29095        0.20709
C         -2.74844        1.10611        0.32201
C         -1.33938        1.20965        0.28144
C         -0.77956        2.49046        0.55719
N          0.47253        2.67649        0.76042
C          1.36744        2.78092       -0.15410
N          1.68795        3.80652       -0.39937
C          2.16685        1.67092       -0.56126
C          1.82724        0.31835       -0.18699
N          2.61547       -0.70339       -0.31172
C          2.32840       -1.95086       -0.09097
N          3.34219       -2.37537       -0.22888
C          0.97586       -1.77349        0.12225
C          0.50733       -3.11994        0.29266
N          0.45170       -4.15456       -0.19303
C          0.65583       -0.37768        0.06556
C         -0.76855       -0.04239        0.13033
C         -1.77377       -0.98513        0.05476
H         -3.48787        1.88263        0.49528
H         -1.27488        3.45594        0.74347
H          2.41089        4.13999       -1.03502
H          1.06775        4.59659       -0.22732
H          3.12470        1.85884       -1.04033
H          2.98715       -3.32337       -0.36472
H          4.34912       -2.46689       -0.09518
H         -1.73409       -1.77403       -0.69368
