32
Coordinates from ORCA-job ./opt_b97-3c_parallel
N          4.05788        0.70417       -1.88790
C          3.23511        0.00283       -1.51710
C          2.03178       -0.12738       -0.74357
C          1.56082       -1.42396       -0.83619
C          1.06952       -2.02348        0.37546
C          1.83814       -3.14527        0.86061
N          2.44416       -4.04736        1.21183
C         -0.29466       -1.89949        0.64795
N         -0.77287       -2.68952        1.27181
C         -1.19073       -1.01154        0.04734
C         -2.50678       -1.34900       -0.11057
C         -2.87603       -0.03780       -0.22382
C         -4.30156       -0.08682       -0.36456
N         -5.43564       -0.09880       -0.50423
C         -2.13763        1.11498       -0.19116
N         -2.57081        2.35653       -0.47015
C         -0.98526        0.40637       -0.01421
C          0.20459        1.01946        0.53273
C          0.14127        2.33149        1.08467
C          1.48461        2.83219        1.06895
N          2.00686        3.77040        1.32684
N          2.31395        1.89331        0.46825
C          1.51553        0.84919        0.18508
H          2.14648       -2.11055       -1.44844
H         -1.72136       -2.74570        1.64138
H         -0.41052       -3.64288        1.27448
H         -2.79867       -2.09347       -0.85128
H         -2.05302        2.95310       -1.11204
H         -3.56332        2.50833       -0.65392
H         -0.74344        2.87865        1.39522
H          2.93799        4.03093        1.00086
H          1.58081        4.62978        1.67451
