27
Coordinates from ORCA-job ./opt_b97-3c_parallel
N         -4.17074        0.40402       -0.41870
C         -3.08767        0.30488       -0.20508
C         -2.15399        1.20651        0.24781
C         -0.98880        0.49111        0.25072
C          0.30840        1.12756        0.46345
C          0.42278        2.49023        0.87884
C          1.70778        2.90939        0.72229
C          2.43349        1.92928        0.19628
C          1.65542        0.82616        0.03026
C          2.00166       -0.27338       -0.83590
N          2.65109       -0.82406       -1.53460
N          1.53981       -1.55311       -0.54927
C          0.91077       -1.69048        0.67624
N          0.99534       -2.79495        0.70335
N         -0.31287       -1.95418        0.09694
C         -1.21732       -0.89780       -0.03854
N         -2.55517       -0.97003       -0.34515
H         -4.66985        1.29516       -0.36225
H         -4.88589       -0.27046       -0.70140
H         -2.17740        2.24003       -0.09633
H         -0.41411        3.11313        1.17911
H          2.08127        3.90028        0.97422
H          3.49541        1.99374       -0.03511
H          3.24546       -1.37881       -2.15180
H          2.88601        0.14929       -1.73493
H          1.98863       -3.02777        0.63006
H          0.61692       -3.49965        1.33994
