28
Coordinates from ORCA-job ./opt_b97-3c_parallel
N          4.78476       -0.00297        0.66312
C          3.70819        0.37773        0.66023
C          2.35829        0.84492        0.61042
C          2.44677        2.20333        0.60931
N          1.28334        2.45446        0.05240
C          0.55042        1.33532       -0.26771
N         -0.63874        1.42615       -0.78023
C         -1.89765        1.13216       -0.65392
N         -2.19395        2.05668       -1.17931
C         -2.40528       -0.03945        0.02180
C         -3.81274       -0.22851        0.19636
N         -4.93684       -0.34242        0.36153
C         -1.39886       -0.95294        0.52258
N         -1.36972       -1.30556        1.57032
C         -0.30736       -1.67991       -0.08697
C         -0.25526       -2.92198       -0.63501
C          0.97460       -3.06841       -1.10875
C          1.72083       -1.98653       -0.91123
C          0.96581       -1.05135       -0.27070
C          1.24682        0.22875        0.11690
H          3.11646        3.02526        0.90787
H         -3.10807        1.60907       -1.24159
H         -2.26265        2.91305       -1.72768
H         -2.33076       -1.31315        1.91426
H         -1.00742       -2.24197        1.75530
H         -1.05654       -3.65740       -0.66184
H          1.33258       -3.97165       -1.59815
H          2.76270       -1.87506       -1.20541
