31
Coordinates from ORCA-job ./opt_b97-3c_parallel
N         -0.85128       -3.30011        0.72806
C         -0.46838       -2.27565        0.57753
C          0.79485       -2.39299       -0.08803
C          1.54881       -1.17379       -0.15870
C          2.95676       -1.22101       -0.34207
C          3.40283        0.13699       -0.17488
N          4.43551        0.53361       -0.22164
N          2.29245        0.95103        0.08532
C          1.21871        0.13414        0.07037
C         -0.10463        0.75217        0.19366
C         -0.22236        2.14444        0.48603
N          0.11037        3.16688        0.73966
N         -1.53361        2.59065        0.38582
C         -2.26530        1.51506        0.01070
N         -3.20100        2.11454       -0.02610
C         -1.39782        0.36045       -0.09734
C         -1.97913       -0.87459       -0.60432
N         -2.83002       -1.45953       -1.01695
N         -1.49709       -2.08633       -0.26144
H         -0.42917       -3.54895        1.62399
H         -1.31148       -4.15155        0.40163
H          1.31114       -3.34727       -0.19836
H          3.57339       -2.10180       -0.51103
H          4.82244        1.44991       -0.45893
H          5.25836       -0.05890       -0.08515
H         -0.29044        3.99967        1.17542
H          1.09689        3.38734        0.60326
H         -4.02692        2.00494        0.56994
H         -3.34949        3.02105       -0.48072
H         -2.97291       -1.53471       -2.02864
H         -3.48901       -2.14087       -0.62590
