35
Coordinates from ORCA-job ./opt_b97-3c_parallel
N         -5.51213       -0.82989       -1.58535
C         -4.51660       -0.94137       -1.03302
C         -3.20450       -0.49918       -0.65923
C         -2.51934       -1.70039       -0.26435
C         -1.18023       -1.31035        0.08578
C         -0.24905       -2.18928        0.77641
N         -0.83822       -2.94284        1.34893
C          1.12371       -1.94778        0.71404
C          1.87496       -2.89844        1.50672
N          2.45659       -3.67137        2.11760
C          1.60516       -1.53417       -0.59388
N          2.27871       -2.21034       -1.16584
C          1.88779       -0.18706       -0.80861
C          2.77385        0.38261       -1.80163
N          3.13010        0.63218       -2.86055
C          1.30056        0.82700        0.04622
C          1.91114        2.02738        0.35104
C          3.18379        2.66999        0.24465
N          4.21786        3.14575        0.14018
C          1.05748        2.88139        1.01681
C         -0.14056        2.22730        0.91844
C         -1.31480        2.80463        1.50474
N         -2.23501        3.29454        1.97594
C         -0.00898        0.90022        0.40375
C         -1.09340        0.05139       -0.03859
C         -2.35236        0.57663       -0.49102
N         -2.90016        1.49607       -0.76630
H         -2.92718       -2.70843       -0.22990
H         -1.68664       -2.72121        1.86726
H         -0.26402       -3.51827        1.96450
H          2.55472       -3.13310       -0.83237
H          3.05593       -1.86613       -1.72875
H          1.11492        3.96555        0.90730
H         -3.85890        1.56359       -1.10209
H         -2.69207        2.38004       -0.30681
