27
Coordinates from ORCA-job ./opt_b97-3c_parallel
N          5.01418       -0.96109        0.39104
C          3.98313       -0.49793        0.22930
C          2.70811        0.12137        0.03694
C          2.35536        1.31502        0.74824
N          1.24515        2.04120        0.49154
C          0.01110        1.75561        0.00828
N         -0.91239        2.78080       -0.10696
C         -2.17648        2.23238       -0.26252
N         -2.94019        3.02511       -0.38971
C         -2.08563        0.80382       -0.18789
C         -3.20321       -0.07339       -0.34175
N         -4.12543       -0.73310       -0.47345
C         -0.69185        0.49857       -0.03836
C         -0.15937       -0.84619        0.04416
C         -0.94325       -1.97743        0.42386
N         -1.72229       -2.68427        0.74774
N          0.09733       -2.33066        0.20368
C          1.12328       -2.65683       -0.12030
C          1.07784       -1.24806       -0.32231
C          1.96038       -0.42631       -0.95373
H          3.20526        1.68636        1.34292
H         -3.02130        4.02588       -0.57804
H         -3.90125        2.67739       -0.37843
H         -2.67631       -2.69238        1.10551
H         -1.48908       -3.65301        0.53225
H          1.62708       -3.63338       -0.19265
H          2.40460       -0.71248       -1.90646
