30
Coordinates from ORCA-job ./opt_b97-3c_parallel
N         -5.21235        0.02472       -0.50826
C         -4.14385        0.36238       -0.29093
C         -2.78546        0.72882       -0.03185
C         -2.42139        2.04743        0.37642
N         -1.40727        1.58687        0.30281
C         -0.54289        0.89633        0.20844
C          0.89150        0.76177        0.00521
C          1.62427        1.90652       -0.21531
N          1.65968        3.00728       -0.35324
N          2.96317        1.53821       -0.34198
C          3.07650        0.16048       -0.16582
N          4.16218       -0.05380       -0.23528
C          1.74218       -0.31205        0.07242
C          1.51101       -1.67142        0.48625
N          2.20835       -2.51585        0.64508
C          0.29486       -2.15577        0.85796
C         -0.64542       -2.13280       -0.12395
N         -1.03743       -2.97254       -0.73226
N         -1.60557       -1.27187       -0.59451
C         -1.64047       -0.01055       -0.10053
H         -3.16858        2.84283        0.52218
H          0.87880        3.59231       -0.04722
H          2.31470        3.66626       -0.78208
H          5.05809        0.38728       -0.45860
H          4.39941       -1.02729       -0.03030
H          2.45927       -3.44228        0.29245
H          2.46851       -2.52833        1.63436
H          0.00543       -2.23868        1.90638
H         -1.94833       -3.18603       -1.14776
H         -0.55173       -3.87165       -0.71561
