27
Coordinates from ORCA-job ./opt_b97-3c_parallel
N         -4.84365       -0.99416       -0.41128
C         -3.76304       -0.64324       -0.29854
C         -2.42972       -0.15383       -0.13682
C         -1.15626       -0.60345        0.02294
C         -0.89950       -1.89882        0.22306
C          0.35398       -2.34545        0.50958
N          1.11736       -2.39586       -0.28302
C          1.90413       -1.62675       -0.24388
C          2.10128       -0.21791       -0.07758
C          3.31411        0.42308       -0.06921
N          4.36703        0.10907       -0.16190
C          3.03048        1.75394        0.09882
C          1.72000        1.96313        0.19570
C          1.08361        0.76503        0.10158
C         -0.34885        0.51789        0.12424
N         -1.14631        1.66150        0.14874
C         -2.38557        1.20319       -0.01343
N         -2.84093        2.21292        0.01806
H         -1.70815       -2.62589        0.17039
H          0.32056       -3.39211        0.85144
H          2.81258       -2.23398       -0.38526
H          4.71108       -0.84846       -0.10771
H          5.18847        0.71171       -0.13770
H          3.77634        2.54677        0.14657
H          1.25092        2.93404        0.33473
H         -2.71718        3.21829       -0.10154
H         -3.84883        2.05111        0.01006
