30
Coordinates from ORCA-job ./opt_b97-3c_parallel
N         -4.87952        0.59737       -0.88134
C         -3.79090        0.39588       -0.60216
C         -2.43384        0.09372       -0.26102
C         -1.46452        1.05131       -0.36171
C         -0.33428        0.36773        0.01468
C          0.98468        0.98727        0.07878
C          1.16318        2.41389        0.15688
C          0.17059        3.39091        0.48134
N         -0.64766        4.13982        0.75349
C          2.47968        2.67176       -0.03895
C          3.10770        1.53120       -0.28161
C          2.23704        0.47956       -0.22313
N          2.68352       -0.69915       -0.69364
C          1.97215       -1.79697       -0.27865
N          2.56401       -2.52571       -0.86714
N          1.05471       -2.58000        0.39167
C          0.17867       -1.86188        1.11620
N          0.00322       -2.82978        1.63217
C         -0.65166       -0.93068        0.37442
C         -1.99528       -1.17166        0.23672
N         -2.60650       -2.07168        0.45199
H         -1.45472        1.73480       -1.20994
H          2.94393        3.65638       -0.00913
H          4.17717        1.45028       -0.47064
H          2.61409       -3.54385       -0.82085
H          3.11032       -2.27900       -1.69495
H         -0.98329       -2.60655        1.79202
H          0.24577       -3.47812        2.38491
H         -2.79819       -3.06275        0.30271
H         -3.49793       -1.60157        0.28685
