33
Coordinates from ORCA-job ./opt_b97-3c_parallel
N          2.85780       -2.83402        0.61562
C          2.51114       -1.75390        0.48517
C          2.11706       -0.38410        0.32957
C          2.91781        0.73645        0.37187
N          4.00013        0.90950        0.51465
C          2.25805        1.91552        0.12644
C          0.96406        1.50298       -0.01924
C         -0.01982        2.34300       -0.64939
C         -1.38242        2.15531       -0.47241
N         -1.81262        3.11967       -0.80329
C         -1.84692        1.66679        0.80277
C         -2.13574        0.31580        0.89959
N         -2.98267        0.15458        1.59418
C         -1.58508       -0.65531       -0.01643
C         -2.16526       -1.87828       -0.27866
N         -3.09922       -2.43889       -0.09348
C         -1.22463       -2.61816       -0.94048
C         -0.09410       -1.93668       -1.06687
C         -0.24558       -0.69893       -0.52209
C          0.78449        0.09167        0.12480
H          4.67862        1.62063        0.24988
H          4.46727        0.00876        0.42900
H          2.67200        2.67461       -0.53763
H          0.39692        3.22537       -1.14340
H         -2.77775        3.24952       -0.50526
H         -1.39409        4.04693       -0.85004
H         -2.40399        2.37036        1.42678
H         -3.83200        0.44448        2.07483
H         -2.96190       -0.86437        1.62237
H         -3.48645       -3.01884       -0.83571
H         -3.56003       -1.53249       -0.16001
H         -1.36319       -3.63294       -1.31394
H          0.79540       -2.30242       -1.57305
