29
Coordinates from ORCA-job ./opt_b97-3c_parallel
N         -4.55609        0.69255       -1.51496
C         -3.74392        1.06091       -0.80022
C         -2.47485        0.70461       -0.24153
C         -1.91490        1.96270       -0.42025
N         -0.88434        2.56275        0.28687
C         -0.13002        1.76541        1.10069
C          0.75631        0.93247        0.35350
C          2.14453        1.19472        0.22042
N          2.68911        2.14565        0.37285
C          2.60677       -0.13274       -0.09292
C          3.99568       -0.41277       -0.31951
N          5.09733       -0.62934       -0.53396
C          1.69613       -1.16953       -0.09352
N          1.83171       -2.37407       -0.67919
C          0.56301       -0.45707        0.20662
C         -0.73341       -0.99794        0.54545
C         -0.86803       -2.37580        0.88318
C         -2.18634       -2.64863        1.00708
C         -2.86240       -1.54073        0.74074
C         -2.02560       -0.49533        0.44530
H         -2.00258        2.99379       -0.79607
H          0.27416        2.75678        1.35542
H          3.69093        2.05356        0.21235
H          2.46869        3.13762        0.30972
H          2.64785       -2.58015       -1.25267
H          1.02514       -2.84455       -1.08516
H         -0.04660       -3.07115        1.01546
H         -2.61595       -3.61125        1.27187
H         -3.94697       -1.46856        0.76204
