28
Coordinates from ORCA-job ./opt_b97-3c_parallel
N         -5.50584        0.53829       -0.04979
C         -4.36489        0.56226       -0.11549
C         -2.93512        0.58229       -0.15815
C         -2.64561        1.90558       -0.29350
N         -1.33767        2.01494       -0.32600
C         -0.82786        0.73832       -0.19658
C          0.62239        0.60982       -0.22397
C          1.41456        1.71736       -0.26664
C          2.52745        0.92902       -0.15562
C          3.63092        1.81440        0.07958
N          4.51459        2.50828        0.29985
C          2.72846       -0.42524       -0.24270
N          3.82924       -1.16943       -0.04441
C          1.37805       -0.62520       -0.23377
C          0.83450       -1.97969       -0.30113
N          1.37180       -2.94337       -0.39811
C         -0.45656       -2.42132       -0.20756
C         -1.24357       -2.00103        0.82454
N         -1.84248       -1.10071        0.60297
C         -1.81475       -0.18203       -0.01222
H         -3.02216        2.93091       -0.42813
H          1.23529        2.54986        0.41339
H          3.73186       -2.12014        0.30837
H          4.64365       -0.75542        0.40689
H          1.19715       -3.82372       -0.88097
H          2.01799       -2.42036       -0.98754
H         -0.88758       -3.10642       -0.94349
H         -1.76146       -2.75669        1.43403
