30
Coordinates from ORCA-job ./opt_b97-3c_parallel
N         -4.92209       -1.50311       -0.31637
C         -3.83004       -1.33743       -0.02366
C         -2.66293       -0.50558        0.06898
C         -1.55409       -1.40858        0.00787
C         -0.35374       -0.62138        0.08290
C          0.90970       -1.31946        0.10405
C          0.93918       -2.67556        0.31370
C          2.28030       -3.11277        0.11837
N          3.02807       -2.00772       -0.23101
C          2.18111       -0.91196       -0.19969
C          2.79589        0.31571       -0.61152
C          2.42372        1.63195       -0.40362
N          3.26016        2.31084       -0.66483
C          1.32760        2.32235        0.23848
C          0.01104        1.92636        0.45775
N         -0.51365        2.84850        0.78721
C         -0.71579        0.69735        0.19581
C         -2.16079        0.76947        0.20605
N         -3.04148        1.43626        0.28326
H         -1.62740       -2.48614       -0.10379
H          0.14066       -3.35552        0.58525
H          2.89335       -4.02577        0.14043
H          3.79663        0.13162       -1.00857
H          4.20750        2.07277       -0.95242
H          3.19963        3.32705       -0.66728
H          1.57567        3.37372        0.44133
H         -0.26854        3.72250        1.24820
H         -1.37352        2.52122        1.22509
H         -2.60254        2.06404       -0.38879
H         -4.02287        1.35769        0.02125
