30
Coordinates from ORCA-job ./opt_b97-3c_parallel
N          5.55592        0.00074       -0.90749
C          4.45601        0.16472       -0.64381
C          3.09397        0.39880       -0.28163
C          2.68219        1.66237        0.22751
C          1.27122        1.64199        0.45241
C          0.67861        2.83683        0.96832
N          0.23687        3.80348        1.38846
C          0.82565        0.37261        0.12544
C         -0.52763        0.01323        0.03259
C         -1.54891        0.85863       -0.31136
N         -1.71472        1.90479       -0.62992
C         -2.68973       -0.00878       -0.33853
C         -4.05025        0.27182       -0.71323
N         -5.08607        0.70716       -0.92462
C         -2.53242       -1.33030       -0.00454
N         -3.37276       -2.23042        0.54424
C         -1.17467       -1.27357        0.20793
C         -0.46994       -2.40930        0.76419
C          0.81119       -2.39382        1.21483
C          1.26604       -2.54811       -0.05709
N          1.94265       -1.63738       -0.83366
C          1.98298       -0.40337       -0.29680
H          3.33279        2.51746        0.38603
H         -0.99780        2.58149       -0.88469
H         -2.60535        2.28969       -0.94143
H         -4.37272       -2.17645        0.35750
H         -3.11183       -3.21250        0.60144
H         -1.05013       -3.31672        0.90619
H          1.13355       -3.06899        2.00367
H          1.55415       -3.21072       -0.88796
