27
Coordinates from ORCA-job ./opt_b97-3c_parallel
N         -4.06824       -1.10062       -0.58710
C         -3.07335       -0.67173       -0.35961
C         -1.86080       -1.24703       -0.07426
C         -0.99924       -0.19069        0.05629
C          0.45492       -0.39185        0.14594
C          1.01481       -1.70521        0.31618
N          0.67373       -2.73585        0.52674
C          2.38634       -1.78235        0.20858
C          2.72448       -0.47701       -0.04609
N          3.80510       -0.30237       -0.19131
C          1.62165        0.42645       -0.06238
C          1.85072        1.82647       -0.35596
N          0.97124        2.76667        0.00110
C         -0.03880        2.39330        0.76812
N         -1.25279        2.33840        0.15697
C         -1.71844        1.05388       -0.04515
N         -3.01450        0.71110       -0.33743
H         -4.32139       -2.06485       -0.36324
H         -4.87792       -0.71855       -1.07930
H         -1.56371       -2.14649       -0.61014
H          0.83825       -2.78826        1.53173
H          1.13817       -3.54793        0.12009
H          2.88335       -2.59810       -0.32551
H          4.48046       -1.04984       -0.03367
H          4.33368        0.47788       -0.57973
H          2.37139        2.76453       -0.60332
H         -0.15999        3.48476        0.67783
