31
Coordinates from ORCA-job ./opt_b97-3c_parallel
N         -3.84725       -1.08551       -1.84907
C         -3.63882       -0.50653       -0.88445
C         -2.69469       -0.36005       -0.31069
C         -2.10273        0.84103       -0.48049
C         -0.90384        1.25859        0.06068
C         -0.93562        2.60209        0.37679
N         -1.43046        3.58547        0.54461
N          0.36165        3.07406        0.32557
C          1.22765        2.04937       -0.04212
N          2.06442        2.78182        0.00611
C          0.42806        0.92101       -0.04234
C          0.90792       -0.33984       -0.00021
C          2.22404       -0.72480       -0.06898
C          3.54268       -0.24206       -0.36075
N          3.44406        0.27217       -1.37758
C          2.31714       -2.08392        0.13229
N          2.84765       -3.06061        0.20898
N          1.03429       -2.52131        0.39093
C          0.15426       -1.44481        0.30222
N         -1.00657       -2.13410        0.62118
C         -2.17997       -1.42472        0.40954
N         -2.55799       -2.33541        0.93754
H         -2.59401        1.57388       -1.13287
H         -2.44025        3.68060        0.69294
H         -1.11654        4.56158        0.51492
H          2.68058        2.87980       -0.80898
H          2.46162        3.44441        0.68212
H          2.76740       -4.05574        0.44188
H          3.80508       -2.98213       -0.14972
H         -3.25638       -2.71939        0.28913
H         -2.86512       -2.68923        1.85048
