29
Coordinates from ORCA-job ./opt_b97-3c_parallel
N          4.89683       -0.14839        0.18725
C          4.06394       -0.73548       -0.33094
C          2.66390       -0.42457       -0.26218
C          2.02741       -1.61822        0.22804
C          0.68453       -1.35700        0.30449
C         -0.14061       -2.40858        0.86102
C         -1.55949       -2.45755        0.67982
C         -2.02574       -1.69273       -0.43096
N         -2.56941       -2.02835       -1.32826
C         -2.69047       -0.73879        0.39680
C         -2.09753        0.49891        0.42664
N         -2.73498        1.64480        0.67651
C         -1.83175        2.65468        0.39314
N         -1.85768        3.75634        0.40846
N         -0.60900        2.13722        0.00893
C         -0.74864        0.80737        0.04963
C          0.43476       -0.04901       -0.07683
C          1.65164        0.50425       -0.42408
N          2.13742        1.44469       -0.75279
H          2.52124       -2.55185        0.48842
H          0.33543       -3.25743        1.34286
H         -2.09819       -3.30924        1.08763
H         -3.55338       -2.05787       -1.59374
H         -2.17638       -2.93001       -1.59774
H         -3.72083       -0.87437        0.72106
H         -1.13413        4.46275        0.28120
H         -2.75072        4.23434        0.29427
H          2.03484        2.41633       -0.46645
H          3.11429        1.34182       -1.03003
