26
Coordinates from ORCA-job ./opt_b97-3c_parallel
N         -2.05870        2.29005       -0.73279
C         -1.69892        1.11934       -0.18386
C         -2.67418        0.18864        0.07504
C         -2.47638       -1.16595       -0.00051
C         -1.12369       -1.11248        0.08241
C         -0.41175       -1.97140        0.99140
C          0.70450       -2.68874        0.43848
C          1.39981       -2.23709       -0.73646
C          1.82461       -0.93785       -0.92923
C          1.80601        0.01970        0.14683
C          2.74694        0.98875        0.32379
C          2.13595        2.10507        0.70508
C          0.82211        1.94743        0.79349
C          0.56042        0.65710        0.44935
C         -0.68285        0.23517        0.00749
H         -2.99258        2.40813       -1.12011
H         -1.40377        2.79611       -1.32560
H         -3.65699        0.53958        0.37545
H         -2.96337       -1.75824       -0.77102
H         -1.00955       -2.57416        1.66807
H          0.80541       -3.72927        0.73065
H          1.85666       -3.01436       -1.34111
H          2.58809       -0.80185       -1.68843
H          3.81804        0.86627        0.18518
H          2.65221        3.03623        0.92471
H          0.10395        2.70378        1.10148
