34
Coordinates from ORCA-job ./opt_b97-3c_parallel
N          4.45289        2.24541       -0.58206
C          3.73883        1.35853       -0.48179
C          2.85204        0.24669       -0.31104
C          3.09642       -1.10750       -0.27084
N          4.02836       -1.69123       -0.37715
C          1.99332       -1.88227        0.00199
C          0.97495       -0.97233        0.11512
C         -0.40610       -1.39280        0.32684
C         -0.70290       -2.76187        0.61085
C         -2.02649       -3.10800        0.61366
C         -2.58234       -1.94144        0.14510
N         -3.64626       -2.20525       -0.00574
C         -1.68448       -0.82650        0.00487
C         -2.07204        0.39848       -0.52631
N         -3.03927        0.58295       -1.03543
C         -1.41457        1.60349       -0.37046
C         -1.58196        2.98313       -0.75537
N         -1.70542        4.06876       -1.09130
C         -0.47948        1.60791        0.72147
N         -0.45029        1.79500        1.81142
C          0.83402        1.64115        0.16429
C          1.45752        0.36513       -0.05634
H          4.34855       -2.43938       -0.98949
H          4.81944       -1.06482       -0.23760
H          1.83216       -2.81516       -0.53799
H          0.08434       -3.47983        0.81085
H         -2.43643       -3.64522        1.47075
H         -4.31654       -2.80474        0.47182
H         -3.77763       -1.26373        0.36100
H         -3.31660       -0.34196       -1.36019
H         -3.60808        1.25829       -1.54255
H          0.09904        2.50777        2.28785
H         -1.41072        2.13312        1.78325
H          1.39820        2.55861        0.02263
