30
Coordinates from ORCA-job ./opt_b97-3c_parallel
N          0.61124       -1.62448       -2.16230
C          1.22902       -1.94497       -1.25183
C          1.28893       -1.50895       -0.23126
C          0.85736       -2.20174        0.86873
C         -0.51804       -2.22973        1.30478
C         -1.45568       -1.52183        0.45943
N         -2.11453       -2.38441        0.24898
C         -1.55931       -0.18953       -0.09954
C         -2.78793        0.26627       -0.48433
N         -3.84994        0.02237       -0.69149
N         -2.78945        1.60057       -0.58253
C         -1.50273        2.01320       -0.21600
N         -1.67018        3.10681       -0.31436
C         -0.72935        0.89096       -0.00428
C          0.60518        0.92225        0.13415
N          1.74802        1.56051        0.25179
C          3.10446        1.36189        0.38706
N          4.06468        1.89410        0.49040
N          2.76757        0.02833        0.27780
C          1.40115       -0.19501        0.15869
H          1.56859       -2.74953        1.48099
H         -0.76737       -2.77131        2.21818
H         -2.56689       -2.76459        1.08385
H         -1.90486       -3.19691       -0.33561
H         -3.83478       -0.99152       -0.54736
H         -4.77258        0.21500       -1.09013
H         -1.84604        3.65950       -1.15860
H         -1.81977        3.76534        0.45552
H          4.38552        2.79614        0.84614
H          4.91501        1.37655        0.26339
