29
Coordinates from ORCA-job ./opt_b97-3c_parallel
N         -4.93464       -1.34314        0.47395
C         -4.04131       -0.65026        0.30614
C         -2.94269        0.23925        0.06714
C         -3.10030        1.52725       -0.33873
C         -1.91309        2.10041       -0.41597
C         -0.96525        1.17439       -0.10060
C          0.45970        1.41427        0.01219
C          0.97417        2.74433       -0.00723
C          2.33062        2.86211        0.11738
C          2.69346        1.53558        0.05816
N          3.79521        1.64189        0.01884
C          1.62005        0.56481        0.02904
C          1.83531       -0.81327       -0.14939
N          2.88013       -1.13991       -0.33986
C          0.94646       -1.89067       -0.15335
C          1.20460       -3.27625       -0.45525
N          1.40229       -4.36835       -0.72573
C         -0.37316       -1.60738        0.29291
N         -1.24302       -1.06049        0.66237
C         -1.54922       -0.08164        0.26519
H         -4.04932        2.00653       -0.56731
H         -1.73511        3.12215       -0.73987
H          0.31554        3.60460       -0.04284
H          2.73199        3.54751        0.86765
H          3.79775        0.67084        0.32773
H          4.54329        2.11136        0.52544
H          3.16025       -2.03532       -0.73697
H          3.12334       -0.42781       -1.02758
H         -1.05331       -2.47318        0.35425
