27
Coordinates from ORCA-job ./opt_b97-3c_parallel
N         -4.27086       -0.05172        0.67210
C         -3.19135       -0.27405        0.56669
C         -2.30633       -1.23814        0.17236
C         -0.82617       -1.35294       -0.00256
C         -0.23184       -2.36750       -0.83166
C          1.12852       -2.61499       -0.75728
N          2.06187       -2.02773        0.10756
C          1.95123       -0.77658        0.71196
N          2.90916       -1.16171        1.12823
C          1.57011        0.39164       -0.06823
C          2.41025        1.45313       -0.27422
N          1.58402        2.49485       -0.36772
C          0.22818        2.24066       -0.22902
N         -0.12922        3.28624       -0.34220
C          0.20622        0.82969       -0.02369
C         -0.98290        0.04755        0.23707
N         -2.19110        0.51246        0.30475
H         -4.95612       -0.80302        0.55326
H         -4.83152        0.75259        0.96240
H         -2.68456       -2.20725       -0.15645
H         -0.84240       -2.97450       -1.49555
H          1.30607       -3.52559       -1.35376
H          3.69894       -1.79315        0.94617
H          3.09478       -0.83377        2.07962
H          3.39380        1.92527       -0.43733
H          0.44691        4.09430       -0.60055
H         -1.06085        3.69216       -0.22886
