32
Coordinates from ORCA-job ./opt_b97-3c_parallel
N          4.48307       -1.25962        1.80625
C          3.53523       -1.04212        1.20720
C          2.33187       -0.80868        0.47104
C          1.88355       -2.08191        0.16476
N          1.06076       -2.60057       -0.77293
C          0.02361       -1.82897       -1.26951
N         -0.04093       -2.73134       -1.90645
C         -0.73872       -1.07766       -0.30636
C         -2.11838       -1.35159       -0.02955
N         -2.63729       -2.29776       -0.27984
C         -2.61574       -0.14766        0.59715
C         -3.95909        0.01009        1.07635
N         -5.03379        0.09995        1.45262
C         -1.60484        0.88895        0.59435
N         -1.78012        1.89881        1.00381
C         -0.45087        0.27072        0.01176
C          0.77419        0.94362       -0.33772
C          0.91966        2.29786       -0.55312
C          0.21826        3.53313       -0.73875
N         -0.48954        3.47141       -1.63606
C          2.26822        2.52624       -0.62878
C          2.95171        1.39948       -0.47434
C          2.08359        0.36399       -0.33463
H          2.24642       -3.07672        0.47024
H         -0.98499       -2.39831       -2.10658
H          0.16348       -3.43279       -2.61871
H         -3.54401       -1.95395        0.03878
H         -2.69703       -3.31430       -0.22863
H         -1.16804        2.71345        1.01087
H         -2.65824        2.20022        1.42647
H          2.73609        3.50034       -0.77160
H          4.03713        1.31964       -0.48660
