32
Coordinates from ORCA-job ./opt_b97-3c_parallel
N          4.71495        2.15201        0.91207
C          3.74154        1.62890        0.62016
C          2.51303        0.92800        0.27863
C          1.58811        1.96652        0.21938
C          0.26271        2.00169       -0.13954
C         -0.32205        3.29449       -0.34826
C         -1.64528        3.34389       -0.70216
C         -1.90558        2.00172       -0.56758
N         -2.99645        2.02333       -0.75269
C         -0.78794        1.15612       -0.26706
C         -0.94619       -0.24563        0.00089
C         -2.27411       -0.74667        0.18892
C         -3.70239       -0.73763        0.32331
N         -4.53585       -0.82496        1.10170
C         -2.08310       -2.15424        0.37301
N         -2.20134       -3.24508        0.54004
N         -0.78079       -2.44487        0.28140
C         -0.04123       -1.27470        0.05529
C          1.34368       -1.39365       -0.13984
C          1.72922       -2.77727       -0.40127
N          1.72408       -3.67194       -1.11377
C          2.42761       -0.49565       -0.08280
N          3.48062       -0.85333       -0.20703
H          1.95907        2.97779        0.40690
H          0.28128        4.19422       -0.26448
H         -1.93137        3.92181       -1.58572
H         -3.58117        2.83150       -0.53674
H         -3.39910        1.60116       -1.58813
H         -2.02490       -4.24763        0.46807
H         -3.14025       -3.15042        0.93184
H          4.34252       -0.32370       -0.07431
H          3.74948       -1.69022       -0.72327
