33
Coordinates from ORCA-job ./opt_b97-3c_parallel
N         -4.94148        1.37611       -0.63516
C         -3.87796        0.98558       -0.48678
C         -2.54284        0.49480       -0.25952
C         -2.31684       -0.83104        0.26746
N         -3.07979       -1.57897        0.55946
C         -0.88904       -0.94511        0.35802
C         -0.33644       -2.04681        1.10284
C          1.01878       -2.45866        0.91228
C          1.42729       -2.33868       -0.45827
N          1.82917       -3.23766       -0.96107
C          2.18381       -1.24674       -0.83773
C          2.24435       -0.04687       -0.04348
C          3.37906        0.70358       -0.01085
C          2.67087        1.84135        0.26781
N          3.27032        2.76899        0.33434
C          1.32865        2.02512        0.46381
C          1.05383        0.71230        0.22528
C         -0.28867        0.21979       -0.05158
C         -1.32954        1.14969       -0.40385
N         -1.33851        2.20878       -0.72989
H         -2.92200       -2.53458        0.24652
H         -4.04703       -1.34783        0.33936
H         -0.98121       -2.68610        1.69760
H          1.23841       -3.39342        1.42180
H          1.45271       -4.15144       -0.71672
H          2.76230       -3.39410       -1.33721
H          2.98861       -1.37184       -1.56431
H          4.10053        0.66536       -0.82578
H          4.28587        2.77214        0.26208
H          2.99071        3.71023        0.60358
H          0.94499        2.51501        1.35704
H         -0.48422        2.75718       -0.81034
H         -2.11926        2.85612       -0.82462
