25
Coordinates from ORCA-job ./opt_b97-3c_parallel
N         -2.81601        2.52389       -0.89342
C         -2.23158        1.59839       -0.56813
C         -1.54952        0.41512       -0.14504
C         -2.42385       -0.62968       -0.06079
N         -3.41064       -1.12880       -0.13752
N         -1.82653       -1.74422        0.33415
C         -0.52274       -1.30590        0.50921
C          0.37362       -2.30098        0.77199
C          1.43933       -2.46578       -0.06337
N          1.84853       -1.63612       -0.96994
C          2.53860       -0.54701       -0.85137
C          2.08126        0.68088       -0.24968
C          2.80792        1.80890       -0.05905
C          2.00625        2.67359        0.54697
C          0.79525        2.16846        0.75978
C          0.75843        0.89632        0.26789
C         -0.29154        0.02052        0.21842
H         -4.10056       -0.38065       -0.21553
H         -3.90684       -1.99373       -0.35177
H          0.17288       -3.03469        1.55017
H          2.24058       -3.04693        0.41843
H          3.56670       -0.66387       -1.22720
H          3.84458        1.97400       -0.34530
H          2.30555        3.67865        0.83620
H         -0.02706        2.69218        1.24170
