28
Coordinates from ORCA-job ./opt_b97-3c_parallel
N         -3.77512       -3.99269       -0.12611
C         -3.06057       -3.10337       -0.18103
C         -2.15304       -2.00246       -0.20399
C         -0.76114       -2.18527       -0.05209
C         -0.25984       -0.85433       -0.01148
C          1.16937       -0.70148        0.15372
N          2.03572       -1.76515       -0.05116
C          3.36092       -1.35492        0.01659
N          4.08364       -2.15362       -0.22604
C          3.22343       -0.03692        0.33788
C          1.96412        0.36230        0.41316
N          1.82758        1.39110        0.78028
C          0.97963        1.97957        0.41336
C         -0.27023        2.43631       -0.09288
C         -0.38625        3.86056       -0.26958
N         -0.44473        4.99498       -0.39223
C         -1.29089        1.50825       -0.32921
N         -2.26143        1.92388       -0.67294
C         -1.32068        0.04120       -0.17487
C         -2.49096       -0.68750       -0.30749
H         -0.22914       -3.12340        0.07418
H          3.92764       -3.08931       -0.60139
H          5.07373       -1.95488       -0.37245
H          4.08134        0.60045        0.55894
H          1.67879        2.80407        0.62856
H         -2.78052        1.37258       -1.35610
H         -2.36282        2.89709       -0.96052
H         -3.43250       -0.32843        0.10496
