33
Coordinates from ORCA-job ./opt_b97-3c_parallel
N          5.00946        0.74025        1.03117
C          3.92220        0.86716        0.70332
C          2.54851        1.02792        0.33814
C          2.08559        2.25611       -0.04445
C          0.74568        2.00707       -0.23260
C          0.30360        3.29068       -0.69500
N         -0.21148        3.70322       -1.62826
C          0.41356        0.69382        0.01948
C         -0.91847        0.14473       -0.03583
C         -2.05653        0.99008        0.14652
N         -2.31258        2.04938        0.33011
C         -3.07936       -0.01282        0.15366
C         -4.47628        0.22008        0.38338
N         -5.58295        0.40351        0.60243
C         -2.66562       -1.30397        0.00903
C         -1.30966       -1.16830       -0.17126
C         -0.42873       -2.23299       -0.61354
N         -0.90269       -3.23148       -0.71135
C          0.89396       -2.38587       -0.97937
C          1.83739       -2.24881       -0.04621
N          2.85726       -3.12387       -0.03307
C          1.82773       -1.28383        0.86852
C          1.57529       -0.01383        0.41878
H          2.44414        3.14872        0.47108
H         -2.02505        2.69872       -0.40035
H         -3.20660        2.38068        0.68801
H         -3.06524       -2.09051        0.64613
H         -0.55783       -4.13879       -1.01931
H         -1.74101       -3.03397       -1.25453
H          1.10771       -3.10088       -1.78047
H          3.75808       -2.85937        0.36156
H          3.02391       -3.73450       -0.83045
H          2.56461       -1.34570        1.66773
