28
Coordinates from ORCA-job ./opt_b97-3c_parallel
N          4.02290        2.38886        0.80784
C          3.21192        1.67871        0.43236
C          2.17202        0.78345       -0.00279
C          1.23806        1.21025       -0.99459
N          0.39456        2.19081       -0.56253
C         -0.79717        1.71586       -0.04554
C         -1.82762        2.57232        0.20748
C         -2.90059        1.71270        0.31218
N         -3.96875        1.93017        0.50676
N         -2.52735        0.41897        0.20370
C         -1.21193        0.34433       -0.00288
C         -0.52062       -0.94635       -0.11032
C         -1.20603       -2.13784       -0.15300
N         -2.07754       -2.82732       -0.20202
N         -0.43116       -3.22784       -0.05193
C          0.86854       -2.75354        0.08913
C          0.87165       -1.31299        0.03808
C          2.02580       -0.56359        0.27125
N          2.88432       -1.09658        0.73201
H          1.50251        2.25583       -1.22203
H         -1.90833        3.52263       -0.31979
H         -4.16679        2.93282        0.51160
H         -4.85571        1.49074        0.76004
H         -3.01613       -2.66508        0.16357
H         -2.12936       -3.76742       -0.60545
H          1.65681       -3.51169        0.22322
H          3.16893       -1.76706        1.44640
H          3.72529       -0.55457        0.52607
