24
Coordinates from ORCA-job ./opt_b97-3c_parallel
N          3.83244       -0.94253        0.00159
C          2.79760       -0.56428        0.00144
N          2.52891        0.79067        0.00317
C          1.16304        0.95118        0.00227
C          0.68842        2.23936        0.00284
C         -0.61304        2.61630       -0.00530
C         -1.93728        2.33125        0.00574
C         -2.62224        1.08049        0.00584
C         -2.02657       -0.22852        0.00209
C         -2.96052       -1.30206        0.00274
C         -2.27236       -2.46117        0.00102
C         -0.98146       -2.16651       -0.00070
C         -0.76386       -0.80247       -0.00011
C          0.55222       -0.34027        0.00017
N          1.59542       -1.24823       -0.00023
H          4.08634       -1.92955        0.00025
H          4.70680       -0.41876        0.00125
H          1.42419        3.04040        0.00380
H         -0.57692        3.70501       -0.01781
H         -2.62123        3.17632        0.00890
H         -3.70735        1.13426        0.00931
H         -4.04021       -1.18319        0.00508
H         -2.70370       -3.45975        0.00143
H         -0.21615       -2.93930       -0.00190
