28
Coordinates from ORCA-job ./opt_b97-3c_parallel
N          4.73096       -1.14899        0.16595
C          3.67688       -0.70830        0.15377
C          2.37066       -0.11913        0.13311
C          1.16315       -0.77300        0.10491
N          0.97291       -2.04599        0.01231
C          0.34628       -3.15513       -0.20211
C         -0.99882       -3.29693        0.25051
C         -1.59161       -2.28545        0.94197
C         -2.03347       -1.14344        0.34069
C         -3.41535       -0.81946        0.13361
N         -3.54308        0.45220       -0.31484
C         -2.25255        0.95062       -0.37574
N         -2.76798        1.86618       -0.72627
C         -1.29759       -0.02670        0.02696
C          0.14076        0.23487        0.06808
C          0.71461        1.48854        0.03970
C          0.14258        2.80189        0.00703
N         -0.36665        3.82429       -0.03335
C          2.14373        1.30466        0.10825
N          2.91767        2.09706        0.12711
H          0.91044       -3.93508       -0.73695
H         -1.50086       -4.24368        0.07645
H         -1.79283       -2.43055        2.00095
H         -4.26397       -1.48764        0.34650
H         -3.56902        2.49400       -0.80425
H         -1.95612        2.43823       -0.96373
H          2.85331        3.10672        0.24516
H          3.86258        1.83117        0.40264
