25
Coordinates from ORCA-job ./opt_b97-3c_parallel
N          4.45833       -2.40083        0.33560
C          3.57786       -1.68146        0.22770
C          2.47772       -0.78114        0.06072
C          1.13356       -1.25307        0.20547
C          0.24728       -0.13641        0.04274
C         -1.18834       -0.42276        0.05432
N         -1.62281       -1.71881       -0.12819
C         -3.00999       -1.72287       -0.09870
N         -3.77565       -2.50426       -0.25401
N         -3.44163       -0.43951        0.19880
C         -2.34856        0.39499        0.26992
N         -2.39654        1.72819        0.60683
C         -1.29181        2.43384        0.25313
N         -0.18872        3.13435       -0.10065
C          0.83501        2.37169       -0.51725
C          1.04461        0.96897       -0.21414
C          2.42426        0.56287       -0.24182
N          3.32846        1.17015       -0.43077
H          0.86038       -2.27838        0.43829
H         -3.53182       -3.48112       -0.42561
H         -4.75305       -2.41747       -0.54012
H         -1.57279        3.43469        0.62201
H          1.53526        3.17480       -0.79606
H          3.48220        2.17432       -0.51764
H          4.24962        0.73695       -0.49729
