29
Coordinates from ORCA-job ./opt_b97-3c_parallel
N          2.00366       -3.78116        0.60631
C          1.05579       -3.15067        0.52251
C         -0.08581       -2.29565        0.38864
C         -1.38304       -2.65177        0.87315
N         -1.47350       -1.63121        0.45934
C         -1.53694       -0.78766       -0.25033
C         -2.13648        0.38872       -0.60482
C         -2.71751        0.29120       -1.54112
N         -3.54527        0.88030       -2.06568
C         -1.58248        1.32929        0.22653
N         -2.18371        2.04734        0.82055
N         -0.65012        2.06738        0.86413
C          0.70073        1.99325        0.72216
N          0.79454        2.91591        1.33184
C          1.40233        1.06521       -0.15693
C          2.70263        1.21523       -0.57587
N          3.69622        1.69864       -0.67852
N          3.15156        0.18457       -1.31828
C          2.10332       -0.73771       -1.38634
C          0.98168       -0.18523       -0.68956
C         -0.11448       -0.99827       -0.23089
H         -1.75893       -3.55004        1.38792
H         -2.48093        3.02077        0.74373
H         -3.04877        1.50651        0.86085
H          0.93227        2.78893        2.33811
H          0.40840        3.85988        1.24301
H          3.94842        2.52310       -1.22845
H          4.59325        1.27207       -0.43165
H          2.38984       -1.67896       -1.88334
