29
Coordinates from ORCA-job ./opt_b97-3c_parallel
N         -2.14379       -2.89619       -2.04864
C         -1.60020       -2.10525       -1.42473
C         -1.72202       -1.33410       -0.63690
C         -0.95236       -1.66792        0.43350
N          0.30815       -1.50129        0.94306
C          1.09495       -0.56294        0.29530
C          2.45376       -0.68575        0.30631
C          3.32622       -1.72434        0.76825
N          4.15827       -2.39136        0.35865
C          2.85940        0.55759       -0.26861
N          3.84680        1.01002       -0.48001
C          1.88700        1.45244       -0.62745
C          0.77646        0.75011       -0.22655
C         -0.49588        1.43645       -0.03069
C         -0.50254        2.86468        0.01150
C         -1.75532        3.27890        0.31216
C         -2.52583        2.20756        0.43232
C         -1.81564        1.06142        0.17428
C         -2.35842       -0.24861       -0.10565
N         -3.46168       -0.36627       -0.03293
H         -0.90947       -2.36598        1.28340
H          4.46318        1.82004       -0.50476
H          4.44286        0.18380       -0.50713
H          1.89518        1.95398       -1.59532
H          0.37939        3.49298       -0.06258
H         -2.06727        4.30991        0.46103
H         -3.58306        2.24155        0.68631
H         -3.92122       -1.18544       -0.42746
H         -3.57820        0.38788       -0.70772
