28
Coordinates from ORCA-job ./opt_b97-3c_parallel
N          4.39425       -1.70375        0.53706
C          3.51511       -0.99198        0.37043
C          2.42487       -0.09928        0.11800
C          2.39450        1.19313       -0.35907
N          3.19648        1.88424       -0.67672
C          1.14738        1.76995       -0.38671
C          0.35712        0.72071       -0.00887
C         -1.07840        0.81418        0.16480
C         -1.70612        2.09633        0.19664
N         -1.79426        3.19458        0.20127
N         -2.59316        1.41672        0.25475
C         -3.34738        0.59275        0.16481
C         -2.13144       -0.14918        0.11468
C         -2.21129       -1.54165       -0.29255
N         -2.87209       -2.37342       -0.58943
N         -1.20029       -2.42195       -0.38026
C         -0.01486       -2.23511        0.19445
N          0.63930       -1.48600        1.00578
C          1.06966       -0.44578        0.37606
H          4.08145        1.40440       -0.83153
H          3.37220        2.87872       -0.80679
H          0.83883        2.42339       -1.20237
H         -2.62919        3.46226        0.71827
H         -1.11875        2.85680        0.88362
H         -4.37640        0.22499        0.03623
H         -2.83325       -1.66806       -1.32255
H         -2.89560       -3.28059       -1.05101
H          0.54195       -3.15318       -0.04651
