26
Coordinates from ORCA-job ./opt_b97-3c_parallel
N          4.17960        1.50210        0.16448
C          3.05024        0.79589        0.00533
C          2.93293       -0.53858       -0.22589
C          1.56418       -0.91794       -0.20336
N          1.17748       -2.21782       -0.43854
C         -0.10309       -2.43616       -0.08281
N         -1.39121       -2.64860        0.27617
C         -2.10535       -1.50338        0.52680
C         -1.74759       -0.14773        0.16475
C         -2.80839        0.81032        0.15396
N         -3.89614        0.79635        0.34259
C         -2.28686        2.02015       -0.18534
C         -0.97439        1.91749       -0.33998
C         -0.55602        0.63276       -0.12913
C          0.86743        0.32426       -0.00047
C          1.82345        1.29888        0.11077
H          5.03420        1.03004        0.45453
H          4.15192        2.40567        0.63322
H          3.74238       -1.23852       -0.40693
H          0.04117       -3.49465       -0.34396
H         -3.05042       -1.99412        0.80187
H         -4.78332        1.26432        0.17105
H         -4.04852       -0.19799        0.18741
H         -2.85654        2.93191       -0.36088
H         -0.34409        2.73479       -0.68152
H          1.62034        2.33930        0.35371
