29
Coordinates from ORCA-job ./opt_b97-3c_parallel
N         -5.48718        0.34891        0.56010
C         -4.38051        0.53521        0.34252
C         -3.00397        0.79459        0.03684
C         -2.55865        1.98773       -0.43522
C         -1.24574        1.93303       -0.56354
C         -0.82004        0.68486       -0.21344
C          0.55827        0.22554       -0.10048
C          1.62573        1.18900       -0.04667
N          1.68317        2.29377       -0.00020
C          2.84890        0.42459       -0.01551
C          4.17711        0.97868        0.05043
N          5.23198        1.41234        0.13312
C          2.55257       -0.98404       -0.09059
N          3.35324       -1.74951       -0.12012
C          1.11895       -1.11314       -0.13106
C          0.58698       -2.38512       -0.35634
C         -0.71656       -2.83011       -0.35975
C         -1.75006       -2.03424        0.19753
N         -2.08280       -1.11653        0.68199
C         -1.91311       -0.13201        0.22625
H         -3.18291        2.84282       -0.68440
H         -0.63631        2.73613       -0.96820
H          2.48047        2.73659        0.45483
H          0.87061        2.46939        0.58793
H          3.24348       -2.76125       -0.12129
H          4.34721       -1.55867       -0.23602
H          1.30189       -3.17090       -0.57755
H         -0.96721       -3.84525       -0.65140
H         -2.68255       -2.61946        0.17190
