28
Coordinates from ORCA-job ./opt_b97-3c_parallel
N          1.78591       -2.78074       -0.89461
C          1.82441       -1.64621       -0.76330
C          1.79111       -0.23679       -0.54271
C          2.82012        0.63472       -0.74572
C          2.47706        1.83407       -0.29962
C          1.19376        1.77918        0.14089
C          0.51782        2.78769        0.90487
C         -0.92125        2.88928        0.99806
C         -1.71903        2.60466       -0.17652
C         -1.96186        1.36117       -0.73332
C         -1.41145        0.14350       -0.20083
C         -2.05973       -1.00911       -0.55265
N         -2.85022       -1.55287       -1.10581
N         -1.55890       -1.98378        0.27491
C         -0.61836       -1.37453        1.09321
N         -0.23745       -2.19304        1.73498
C         -0.41632       -0.07071        0.70280
C          0.69139        0.44620        0.08458
H          3.79127        0.37832       -1.16514
H          3.10819        2.72108       -0.31348
H          1.10021        3.61576        1.29947
H         -1.21976        3.79232        1.52360
H         -2.39720        3.40536       -0.45976
H         -2.73573        1.29160       -1.49288
H         -3.56426       -0.88342       -1.39785
H         -3.19127       -2.46274       -1.42034
H          0.62317       -2.62359        1.38726
H         -0.38529       -2.59327        2.66319
