30
Coordinates from ORCA-job ./opt_b97-3c_parallel
N         -2.82133        2.65374        0.44786
C         -1.80247        2.18680        0.67853
C         -0.98596        1.50454        0.32489
C          0.15580        2.17644       -0.05670
N          0.37126        2.76736       -0.97792
N          1.05970        2.03752        0.57750
C          1.96573        1.42632        0.73963
C          2.20249        0.08383        0.30504
C          3.48507       -0.53610        0.28302
N          4.49517       -0.20714        0.57754
C          3.31671       -1.76848       -0.28588
C          2.04355       -1.96051       -0.62292
C          1.30441       -0.86601       -0.27332
C         -0.14512       -0.74221       -0.30893
N         -0.79974       -1.91373       -0.68700
C         -2.04107       -1.75002       -0.24228
N         -2.27627       -2.76348       -0.63021
C         -2.20611       -0.55460        0.39383
C         -3.55473       -0.59161        0.87219
N         -4.63781       -0.66167        1.22755
C         -1.05210        0.16195        0.22376
H          1.16881        3.39005       -0.85120
H         -0.42703        3.36778       -1.17983
H          2.76623        2.07061        1.13469
H          5.32661       -0.76528        0.39056
H          4.80610        0.75935        0.65834
H          4.11231       -2.49167       -0.45929
H          1.66566       -2.85833       -1.10593
H         -3.29418       -2.77813       -0.54858
H         -1.99308       -3.73598       -0.75304
