30
Coordinates from ORCA-job ./opt_b97-3c_parallel
N          4.43618        1.90449       -0.23439
C          3.54540        1.19023       -0.19932
C          2.38838        0.33601       -0.14770
C          1.07034        0.73521       -0.20169
N          0.80329        2.04032       -0.36642
C         -0.45813        2.39486       -0.01685
N         -0.28143        3.46207       -0.25511
N         -1.73126        2.69154        0.34329
C         -2.52857        1.60182        0.59763
C         -2.28921        0.23898        0.17681
C         -3.42812       -0.62453        0.17451
N         -4.49702       -0.50221        0.42258
C         -3.03299       -1.83832       -0.28829
C         -1.73070       -1.82455       -0.53009
C         -1.17501       -0.60959       -0.22467
C          0.28015       -0.40048       -0.12155
C          1.10269       -1.50563        0.00256
C          1.01496       -2.93113        0.18313
N          1.03380       -3.97441       -0.28319
C          2.42547       -1.09818        0.01128
N          3.42612       -1.57512        0.10626
H          0.31190        3.75293       -1.03267
H         -0.79788        4.30171        0.00843
H         -3.49030        2.03945        0.90635
H         -5.16389        0.22295        0.68077
H         -5.00849       -1.38346        0.45181
H         -3.69299       -2.67017       -0.53397
H         -1.23147       -2.64078       -1.04321
H          3.43553       -2.59365        0.05753
H          4.36707       -1.28912        0.37448
