29
Coordinates from ORCA-job ./opt_b97-3c_parallel
N          3.21280       -0.56345       -2.41397
C          2.60222       -0.37409       -1.46761
C          1.79724       -0.16277       -0.29642
C          1.70128        1.13691        0.31319
N          2.22393        2.08884        0.09409
C          0.72478        1.39930        1.22874
C         -0.47276        1.72910        0.65797
C         -1.07758        3.00899        0.56723
C         -2.29844        2.80673       -0.16101
N         -2.43494        1.46378       -0.50379
C         -1.32339        0.89657       -0.01301
C         -1.13428       -0.53293       -0.16591
C         -2.21337       -1.26182       -0.58586
N         -3.23327       -1.45849       -0.96324
N         -1.99128       -2.55791       -0.17897
C         -0.77511       -2.60374        0.49231
C         -0.16901       -1.39736        0.26311
C          1.16329       -1.27785        0.20212
N          2.02456       -2.23661        0.60013
H          2.27571        3.05548        0.41297
H          3.17179        1.82531       -0.17432
H          0.93646        1.57737        2.28242
H         -0.69469        3.94654        0.95833
H         -2.89004        3.72198       -0.31525
H         -4.19670       -1.78984       -0.93379
H         -3.28443       -0.44400       -1.08267
H         -0.47775       -3.59110        0.87800
H          3.02652       -2.10444        0.45868
H          1.82474       -3.21953        0.42299
