28
Coordinates from ORCA-job ./opt_b97-3c_parallel
N         -0.53063        4.88910       -0.67395
C         -0.24502        3.82632       -0.36357
C          0.15047        2.51437        0.05135
C         -0.50657        1.80308        1.09081
N         -1.69106        1.29246        0.66921
C         -1.55753        0.02141        0.14222
C         -2.67371       -0.71485       -0.12906
C         -4.06992       -0.39471       -0.11839
N         -5.16977       -0.67541       -0.25800
C         -2.10844       -2.00419       -0.36508
N         -2.55924       -2.99160       -0.58103
C         -0.74945       -2.13980       -0.26499
C         -0.39642       -0.84123        0.02668
C          1.02576       -0.47840        0.15624
C          1.93351       -1.57295        0.25224
C          3.20922       -0.97059        0.16228
C          4.41024       -1.74145        0.19847
N          5.36996       -2.36136        0.19500
C          3.15039        0.37719       -0.01810
C          1.80997        0.67913        0.02408
C          1.38316        2.02664       -0.28479
H         -1.39830        2.40165        1.33430
H         -2.45683       -4.00497       -0.59141
H         -3.55990       -2.79802       -0.57270
H         -0.18901       -2.70763       -1.00847
H          1.72109       -2.63333        0.34948
H          3.81293        0.86891       -0.72755
H          2.10877        2.69946       -0.73433
