26
Coordinates from ORCA-job ./opt_b97-3c_parallel
N          4.91414       -0.38332       -0.48606
C          3.81427       -0.51152       -0.20407
C          2.42844       -0.61470        0.14341
C          2.31692       -1.94622        0.40769
N          1.01044       -2.07740        0.41244
C          0.42560       -0.84708        0.21855
C         -1.01917       -0.80819        0.14414
C         -1.83519       -1.97851        0.24772
C         -3.18394       -1.76668        0.12973
C         -3.23382       -0.40679       -0.06539
N         -4.26141       -0.01322       -0.17256
C         -1.96221        0.24954       -0.05092
C         -1.90883        1.69544       -0.16377
N         -0.81730        2.54826       -0.05578
C          0.44418        2.01821       -0.00725
N          0.77050        3.06096        0.17341
N          1.59077        1.43197        0.03098
C          1.31426        0.17575        0.11579
H          2.80750       -2.92076        0.55759
H         -1.40619       -2.96229        0.41063
H         -3.80456       -2.45891       -0.43855
H         -4.91578       -0.79176       -0.24810
H         -4.81937        0.82921       -0.30463
H         -2.79989        2.33358       -0.26559
H          1.40835        3.17672        0.96110
H          0.50123        4.00654       -0.09918
