33
Coordinates from ORCA-job ./opt_b97-3c_parallel
N          5.20409        0.88988       -0.96264
C          4.20688        0.47651       -0.58693
C          2.90483       -0.02121       -0.23739
C          1.74158        0.71644       -0.21882
C          1.66406        2.00927       -0.70085
C          0.81560        3.02195       -0.32144
C          0.19994        3.01510        0.97379
C         -1.00829        2.37800        1.09616
C         -1.40955        1.23781        0.43347
C         -2.82014        0.97758        0.31799
N         -3.67729        1.61999        0.60516
C         -2.92047       -0.32065       -0.30066
C         -4.20053       -0.89727       -0.62562
N         -5.21403       -1.33992       -0.91396
C         -1.64772       -0.83502       -0.47387
N         -1.56786       -1.83028       -0.95315
C         -0.70257        0.14489       -0.00249
C          0.65016       -0.15789        0.11401
C          1.17917       -1.40568        0.37988
C          0.70333       -2.68540        0.82717
N          0.29787       -3.58969        1.39593
C          2.60659       -1.36257        0.18815
N          3.41779       -2.11403        0.28268
H          2.48077        2.34512       -1.33232
H          1.09167        4.01012       -0.67691
H          0.25828        3.96790        1.49129
H         -1.74242        2.89983        1.70286
H         -4.63330        1.44412        0.30119
H         -3.54494        2.62917        0.60703
H         -0.72201       -2.39610       -0.97263
H         -2.33994       -2.45229       -1.18769
H          4.42356       -1.95390        0.28683
H          3.25727       -3.01967        0.72004
