31
Coordinates from ORCA-job ./opt_b97-3c_parallel
N          4.96111       -0.36969       -1.04076
C          3.88308       -0.36187       -0.66033
C          2.53253       -0.30750       -0.16311
C          2.31573       -0.82155        1.16418
C          1.64663       -2.08742        1.16475
C          0.50268       -2.31571        0.33195
C         -0.10980       -3.59755        0.24478
C         -1.34547       -3.61880       -0.34718
C         -1.58819       -2.27002       -0.44017
C         -2.84503       -1.88382       -1.00606
N         -3.84545       -1.59788       -1.47896
C         -0.48816       -1.40578       -0.10613
C         -0.55117        0.02323        0.12317
C         -1.79886        0.68118        0.34955
C         -1.54951        2.09039        0.36876
C         -2.65578        2.97287        0.60657
N         -3.53242        3.66916        0.82900
C         -0.20390        2.28825        0.10395
N          0.10770        3.35055        0.04875
C          0.41912        0.98627       -0.01183
C          1.78146        0.81623       -0.49893
N          2.13955        1.65209       -1.13955
H          3.19994       -0.87012        1.79392
H          2.02728       -2.88977        1.78830
H          0.35977       -4.46874        0.69108
H         -2.11474       -4.30663       -0.00283
H         -2.76399        0.21999        0.51277
H         -0.20075        4.25102        0.40829
H          1.12602        3.34273        0.08817
H          3.00607        1.72547       -1.67021
H          1.40190        2.04940       -1.72011
