26
Coordinates from ORCA-job ./opt_b97-3c_parallel
N         -3.34615        0.45581       -1.11981
C         -2.38493        0.75309       -0.57679
C         -1.16455        1.07151        0.11765
C         -1.42394        2.40668        0.03279
N         -0.19487        2.80681       -0.19189
C          0.54117        1.67417        0.08206
C          1.94625        1.87962       -0.12548
C          2.90657        1.04561        0.36638
C          3.03310       -0.23232        0.01991
C          2.22592       -0.89832       -0.86047
C          1.00034       -1.50117       -0.40763
C          0.54898       -2.74681       -0.67566
C         -0.55966       -2.89086        0.03441
C         -0.88583       -1.79767        0.72254
N         -1.96788       -1.72074        1.51335
C          0.06125       -0.84407        0.44840
C          0.00226        0.52015        0.57954
H         -1.90139        3.37961       -0.15979
H          2.24944        2.84644       -0.51940
H          3.62261        1.45802        1.07341
H          3.84905       -0.79632        0.46539
H          2.72955       -1.45674       -1.64345
H          1.03148       -3.50071       -1.29285
H         -1.13713       -3.81270        0.05675
H         -2.37249       -0.81056        1.72397
H         -2.74108       -2.36745        1.36815
