28
Coordinates from ORCA-job ./opt_b97-3c_parallel
N          5.46114        0.73992        0.35291
C          4.33500        0.91295        0.26269
C          2.92147        1.09086        0.13700
C          2.34123        2.31841        0.00548
N          1.03884        2.07372       -0.08039
C          0.71820        0.72557       -0.02703
C         -0.68363        0.30435       -0.08779
C         -1.73371        1.27462       -0.17838
N         -1.87372        2.37217       -0.22051
C         -2.89017        0.41865       -0.21445
C         -4.25509        0.85360       -0.30416
N         -5.34961        1.18021       -0.34960
C         -2.71231       -0.93484       -0.15559
C         -1.34422       -0.97651       -0.08666
C         -0.60078       -2.20610       -0.04799
N         -1.14996       -3.17481       -0.09652
N          0.34553       -2.76529        0.00091
C          1.34608       -2.32435        0.13100
C          2.35714       -1.34110        0.23959
C          1.96722        0.03820        0.11603
H          2.75343        3.33771       -0.03365
H         -0.94179        2.73294       -0.02409
H         -2.53539        3.11098        0.00921
H         -3.32195       -1.54824        0.50516
H         -1.43891       -2.86226       -1.02139
H         -1.02997       -4.18451       -0.15178
H          1.84780       -3.29780        0.24322
H          3.39306       -1.63381        0.37884
