31
Coordinates from ORCA-job ./opt_b97-3c_parallel
N         -4.08741        2.90983       -0.25115
C         -3.25352        2.13538       -0.14919
C         -2.20030        1.16423       -0.06142
C         -0.91798        1.58674       -0.22547
C         -0.23693        0.40687       -0.06700
C          1.17548        0.41708        0.19011
C          1.92998        1.61422        0.35435
C          3.25550        1.32539        0.28710
N          4.28901        2.17204        0.40166
C          3.36825        0.02029        0.05530
C          2.14922       -0.59386       -0.02561
C          1.83854       -1.44940       -1.12973
C          1.24718       -2.64937       -0.82885
C          0.30720       -2.87432        0.23522
C         -0.72428       -1.98960        0.56789
N         -1.42425       -2.67234        1.09309
C         -1.05323       -0.68114        0.19588
C         -2.35689       -0.22965        0.21846
N         -3.37842       -0.62881        0.38835
H         -0.65645        2.27540       -1.02579
H          1.49074        2.60508        0.41472
H          4.17853        3.05095        0.90339
H          5.22559        1.81726        0.58386
H          4.31629       -0.50111       -0.05803
H          2.60473       -1.48938       -1.89831
H          1.63377       -3.53136       -1.32972
H          0.27005       -3.93081        0.52476
H         -2.17780       -2.11286        1.48988
H         -1.71780       -3.64515        1.15677
H         -3.14676       -1.24215       -0.39100
H         -4.21445       -0.11053        0.12400
