33
Coordinates from ORCA-job ./opt_b97-3c_parallel
N         -5.45572        0.49186        1.08101
C         -4.38847        0.17243        0.82542
C         -3.05579       -0.20174        0.46301
C         -2.00625        0.76750        0.51784
C         -0.82686        0.11967        0.04819
C          0.42420        0.83579       -0.10345
C          0.55771        2.19399       -0.15185
C         -0.23369        3.38895       -0.15976
N         -1.01470        4.02688       -0.69715
C          1.98299        2.31312       -0.25672
N          2.67058        3.17705       -0.34228
C          2.74208        1.16784       -0.29191
C          1.73448        0.24556       -0.11008
C          2.00222       -1.02552        0.34026
C          2.20544       -1.05727        1.44127
N          2.99507       -1.09384        2.27052
C          1.96177       -2.23232       -0.31593
N          2.74916       -2.99950       -0.49920
C          0.76788       -2.71067       -0.96283
C         -0.33176       -1.92523       -1.12792
C         -1.12641       -1.17296       -0.31053
C         -2.52624       -1.37340       -0.04494
N         -3.10534       -2.28105       -0.29445
H         -2.11016        1.79170        0.85705
H          2.02790        3.96728       -0.31584
H          3.58931        3.53978       -0.09327
H          3.68544        1.07863        0.25050
H          2.44237       -3.96856       -0.55578
H          3.42677       -2.94919        0.25977
H          0.77765       -3.68411       -1.45403
H         -0.72110       -1.97661       -2.14191
H         -4.11148       -2.13191       -0.22573
H         -2.96399       -3.27867       -0.43696
