25
Coordinates from ORCA-job ./opt_b97-3c_parallel
N          4.90819        0.52134        0.01361
C          3.79425        0.26537        0.01262
C          2.40632       -0.10853        0.00854
C          2.16103       -1.51749        0.00978
C          0.92810       -2.25486        0.00499
C         -0.41853       -1.93748        0.00250
N         -1.29269       -2.95047        0.00134
C         -2.56786       -2.42971        0.00067
N         -2.50123       -1.05759        0.00185
C         -1.20420       -0.73189        0.00229
C         -0.88538        0.68222        0.00311
C         -1.94319        1.65611        0.00222
N         -3.03705        1.82861        0.00164
C         -1.38031        2.89340       -0.00058
C         -0.06459        2.73782       -0.00064
C          0.27951        1.41134        0.00239
C          1.56371        0.96595       -0.00771
H          3.04740       -2.14598        0.01427
H          1.14230       -3.31985        0.00545
H         -3.48713       -3.03440       -0.00027
H         -3.89109        2.38143       -0.00215
H         -3.32061        0.84963        0.00542
H         -1.88890        3.86018       -0.00353
H          0.64184        3.56549       -0.00413
H          2.16297        1.87801       -0.02487
