31
Coordinates from ORCA-job ./opt_b97-3c_parallel
N          4.61589        0.13556        1.41259
C          3.56178        0.07259        0.97548
C          2.22836       -0.03629        0.46749
C          1.49503        1.07668        0.71512
C          0.98600        1.78751       -0.33246
C          2.03659        2.74352       -0.56464
N          2.85333        3.51318       -0.78284
C         -0.35511        1.62192       -0.62531
N         -0.74221        2.55772       -1.07228
C         -1.09191        0.48720       -0.10091
C         -2.48889        0.64876        0.14872
N         -3.29808        1.40004        0.16638
C         -2.80579       -0.69851        0.47721
C         -3.97898       -1.41041        0.89034
N         -5.09122       -1.64226        1.02211
C         -1.80327       -1.62224        0.39704
C         -0.72275       -0.84639        0.04648
C          0.41219       -1.43918       -0.64551
C          0.44360       -2.71517       -1.13038
C          1.70280       -3.13284       -1.15668
C          2.53755       -2.21467       -0.69474
C          1.78638       -1.14041       -0.33417
H          1.35087        1.42682        1.73609
H         -0.46524        3.46847       -1.43501
H         -1.60404        2.29788       -1.54983
H         -2.73363        2.20809        0.42263
H         -4.10254        1.38618        0.79058
H         -1.97336       -2.60258       -0.04403
H         -0.40855       -3.28396       -1.49458
H          2.01345       -4.10866       -1.52253
H          3.61795       -2.31092       -0.61352
