28
Coordinates from ORCA-job ./opt_b97-3c_parallel
N         -1.27517       -3.09623        0.49050
C         -0.84866       -2.23212       -0.04449
N         -1.98620       -1.60296        0.37090
C         -2.15373       -0.26899        0.03695
N         -3.38520        0.33844        0.05371
C         -3.20007        1.68888       -0.17882
N         -1.84794        1.96271       -0.26813
C         -1.17310        0.76817       -0.15694
C          0.28394        0.77747       -0.04905
C          0.99801        2.01859        0.11393
N          0.87381        3.11652        0.18473
C          2.36521        1.89596        0.28221
C          2.49153        0.54217        0.09019
N          3.56584        0.27869        0.07422
C          1.26928       -0.16824       -0.08260
C          1.27625       -1.56392       -0.42017
N          1.98004       -2.40102       -0.58267
N          0.22581       -2.22295       -0.75188
H         -1.77859       -3.23599        1.36451
H         -0.37239       -3.55360        0.59509
H         -4.08504        2.34142       -0.21657
H         -0.13736        3.10833        0.06473
H          1.12417        4.04416        0.52096
H          2.88941        2.38306        1.11150
H          4.46530        0.68725        0.32147
H          3.62686       -0.71687        0.28171
H          2.35110       -1.61243       -1.10993
H          1.94323       -3.19086       -1.22461
