22
Coordinates from ORCA-job ./opt_b97-3c_parallel
N         -4.65723        0.37645       -0.04523
C         -3.57100        0.02209       -0.07527
C         -2.22143       -0.45654       -0.09372
C         -1.96349       -1.85834       -0.08269
C         -0.65275       -2.24385       -0.09853
C         -0.07015       -1.00296       -0.11675
C          1.35591       -0.77886       -0.12948
C          2.26154       -1.79575       -0.12990
N          3.49825       -1.38024        0.01611
C          3.23891       -0.02906        0.04362
C          1.97037        0.43848       -0.11006
C          1.93137        1.79173        0.04347
N          1.02435        2.77343        0.11192
C         -0.26355        2.42406        0.01295
N         -0.96410        1.34691       -0.13446
C         -0.95409        0.05265       -0.11837
H         -2.78809       -2.56453       -0.05857
H         -0.29758       -3.01787        0.57794
H          2.34299       -2.89208       -0.17699
H          4.27720        0.31138        0.17436
H          2.59530        2.65862        0.17883
H         -1.00083        3.23956        0.06587
