25
Coordinates from ORCA-job ./opt_b97-3c_parallel
N         -4.48648        1.05315       -0.00063
C         -3.39474        0.71319       -0.00137
C         -2.02889        0.24137       -0.00206
C         -1.24436        1.38746       -0.00079
C          0.11616        1.60106       -0.00066
C          0.52462        2.97192        0.00083
C          1.87063        3.04056        0.00100
C          2.32855        1.80186       -0.00033
C          1.29529        0.88770       -0.00136
C          1.56749       -0.46878       -0.00247
N          2.89883       -0.83965       -0.00243
C          3.00756       -2.21154       -0.00351
N          1.74728       -2.49835       -0.00429
C          0.81108       -1.60942       -0.00372
C         -0.57903       -1.96086       -0.00458
C         -1.73116       -1.18221       -0.00382
N         -2.57545       -1.90519       -0.00480
H         -1.78823        2.33351        0.00033
H         -0.15731        3.81715        0.00180
H          2.46885        3.94840        0.00211
H          3.39167        1.57176       -0.00057
H          3.85357       -2.91473       -0.00377
H         -0.68397       -3.05004       -0.00582
H         -3.53058       -1.55061       -0.00413
H         -2.64338       -2.92109       -0.00536
