26
Coordinates from ORCA-job ./opt_b97-3c_parallel
N          5.43620       -1.55066        0.45119
C          4.41777       -1.04325        0.34440
C          3.14025       -0.42851        0.17524
C          2.94393        0.90643       -0.04211
C          1.57565        0.97020       -0.16079
C          0.96369        1.98999       -0.97413
N          0.34205        2.98438       -0.32481
C         -0.70504        2.70173        0.45648
N         -1.32470        1.57215        0.53686
C         -1.46645        0.33539        0.18408
C         -2.60365       -0.41131        0.07348
C         -3.95525        0.03890        0.21783
N         -5.00977       -0.08186       -0.20789
C         -2.10080       -1.72741       -0.16057
N         -2.63056       -2.69072       -0.28318
C         -0.74633       -1.91905       -0.19931
C         -0.39386       -0.60095       -0.03729
C          0.95560       -0.25592        0.01615
C          1.93759       -1.17915        0.21816
H          3.59374        1.46345       -0.71378
H          1.52816        2.86969       -1.31795
H         -1.26814        3.45440        1.02896
H         -3.59914       -2.40612       -0.42382
H         -2.62932       -3.70661       -0.21274
H         -0.28131       -2.52046       -0.98069
H          1.86771       -2.25012        0.38401
