26
Coordinates from ORCA-job ./opt_b97-3c_parallel
N         -4.47745        1.58152       -0.66368
C         -3.35571        1.36757       -0.61909
C         -1.96008        1.06779       -0.53960
C         -1.40561        2.23562       -0.10928
N         -0.11600        2.17317        0.13166
C          0.03601        0.81658       -0.06909
C          1.38706        0.30770        0.02698
C          2.51775        1.11703        0.35529
N          3.15445        1.97483        0.62510
N          2.95868        0.09631        0.21356
C          3.21469       -0.97401       -0.00352
C          1.80689       -1.02211       -0.21796
C          1.09967       -2.09334       -0.68365
C          0.17880       -2.79783        0.03425
C         -1.15372       -2.30954        0.24593
N         -2.08658       -2.65412        0.71745
N         -1.54287       -1.13582       -0.13696
C         -1.07915        0.06163       -0.27999
H         -1.51780        3.31801        0.05480
H          2.20534        2.25452        0.38279
H          3.77142        2.72623        0.32456
H          4.10324       -1.62012       -0.05899
H          1.33574       -2.45167       -1.68190
H          0.41267       -3.78779        0.41084
H         -3.07562       -2.42233        0.64840
H         -2.01125       -3.66294        0.60414
