30
Coordinates from ORCA-job ./opt_b97-3c_parallel
N         -1.21354        4.51781       -0.60553
C         -0.66609        3.63083       -1.07468
C         -0.52660        2.28661       -0.59770
C         -1.63267        1.46631       -0.60073
C         -1.63461        0.09472       -0.13721
C         -2.92347       -0.51890        0.02228
N         -4.02561       -0.55159        0.02416
N         -2.78069       -1.82566        0.34405
C         -1.41367       -2.04835        0.37061
N         -1.46987       -3.13053        0.59160
C         -0.67389       -0.86578        0.08547
C          0.76564       -0.97262       -0.07881
N          1.37240       -2.17514       -0.05964
C          2.68261       -2.10038       -0.31190
C          2.93208       -0.76725       -0.48999
C          4.31925       -0.46063       -0.65806
N          4.91348        0.02180        0.19108
C          1.75648       -0.00005       -0.36141
C          1.72764        1.42905       -0.31128
C          0.53652        1.93325        0.28883
N          0.69461        2.20944        1.34622
H         -2.59017        1.86238       -0.93005
H         -4.22828        0.40188        0.32186
H         -4.91751       -1.04522        0.01336
H         -1.85107       -4.07311        0.51806
H         -0.45475       -3.22423        0.51614
H          3.37106       -2.95979       -0.33220
H          2.61268        2.02784       -0.51025
H          0.19291        3.09784        1.32985
H          1.63098        2.42208        1.69005
