29
Coordinates from ORCA-job ./opt_b97-3c_parallel
N         -4.17155       -0.26686       -0.29859
C         -2.83594       -0.35704       -0.22009
C         -2.15601       -1.49608       -0.15872
C         -0.81057       -1.27555       -0.04346
N          0.05176       -2.22909        0.48904
C          1.38209       -1.90218        0.52725
N          1.30363       -2.90415        0.99092
C          1.90322       -1.71433       -0.79071
C          2.30095       -0.44679       -1.12691
C          1.87596        0.72233       -0.39688
C          2.50178        1.92125       -0.45572
C          1.67119        2.82131        0.04414
C          0.50289        2.31279        0.42714
N         -0.42886        3.07380        1.02265
C          0.55354        0.97313        0.13676
C         -0.59770        0.09288       -0.06513
C         -1.91378        0.63452       -0.15763
H         -4.72643       -1.02197       -0.69826
H         -4.62056        0.61740       -0.53465
H         -2.61456       -2.48293       -0.17618
H          2.30556       -2.90471        1.17861
H          0.92854       -3.72389        1.47001
H          2.24158       -2.58172       -1.35286
H          3.07513       -0.32847       -1.87995
H          3.51094        2.10941       -0.81796
H          1.93207        3.87321        0.14659
H         -0.20446        4.01952        1.32947
H         -1.08867        2.67251        1.68638
H         -2.15822        1.68978       -0.19509
