29
Coordinates from ORCA-job ./opt_b97-3c_parallel
N         -3.81379        0.86706       -0.02461
C         -2.90235        0.17823       -0.02447
C         -1.71093       -0.61289       -0.02838
C         -1.78420       -2.04439        0.07714
N         -2.63777       -2.73859        0.16360
C         -0.60382       -2.74724        0.10242
C          0.22321       -1.65728        0.04736
N          1.49570       -2.01655       -0.25678
C          2.44103       -1.02338       -0.32514
N          3.02928       -1.90077       -0.66521
C          2.78838       -0.51644        0.96926
C          2.49424        0.87276        1.13507
C          1.42124        1.48953        0.39522
C          1.32830        2.91329        0.36459
N          0.14549        3.19402       -0.20750
C         -0.58236        2.10325       -0.50322
N         -1.37854        2.78808       -0.86124
C          0.18693        0.94572       -0.11011
C         -0.36631       -0.34051       -0.04150
H         -2.87380       -3.72588        0.26870
H         -3.52417       -2.23350        0.21873
H         -0.44720       -3.61473       -0.53904
H          3.09222       -2.70500       -1.29379
H          4.00063       -1.62451       -0.51014
H          3.60040       -0.95691        1.54638
H          3.12851        1.47364        1.78170
H          2.00859        3.70362        0.71988
H         -1.59161        3.73712       -1.17673
H         -2.27686        2.29978       -0.90002
