28
Coordinates from ORCA-job ./opt_b97-3c_parallel
N          3.95063        0.70005        1.40859
C          2.93576        0.50178        0.92080
C          1.64925        0.21622        0.33385
C          1.03297        1.23164       -0.49294
N          1.72517        2.36456       -0.88995
C          0.82457        3.25297       -1.29641
C         -0.39924        2.76368       -1.12452
C         -0.35459        1.50863       -0.62773
C         -1.30453        0.96406        0.31492
C         -2.41138        1.75130        0.75121
N         -2.75093        0.72140        1.02350
C         -3.04128       -0.35816        0.97832
C         -1.72582       -0.38511        0.40657
C         -1.15846       -1.51941       -0.30522
N         -1.96344       -2.24872       -0.54915
C          0.19761       -1.48328       -0.61434
C          0.61301       -2.62932       -1.39448
N          0.90643       -3.69244       -1.69706
C          1.03785       -1.02662        0.48230
N          1.52496       -1.82393        1.09120
H          1.36050        4.14848       -1.64511
H         -1.31236        3.29598       -1.37899
H         -2.85154        2.75840        0.80013
H         -3.89719       -1.01485        1.19454
H         -1.73123       -3.19446       -0.84835
H         -2.89411       -2.04261       -0.90693
H          1.39024       -2.81650        0.90524
H          2.50285       -1.70530        1.35167
