33
Coordinates from ORCA-job ./opt_b97-3c_parallel
N          5.21046        0.41374       -0.17220
C          4.17735       -0.02140        0.04630
C          2.86405       -0.52275        0.29232
C          2.63372       -1.78011        0.92536
C          1.34100       -2.22091        0.97059
C          0.73100       -1.14395        0.38338
C         -0.62233       -1.18939       -0.13203
C         -1.31859       -2.33311       -0.43237
N         -1.10293       -3.41253       -0.50695
C         -2.59417       -1.93139       -0.72871
C         -2.76309       -0.62216       -0.55046
N         -3.91321        0.01931       -0.81258
C         -1.57633       -0.13044       -0.09345
C         -1.45606        1.03239        0.62466
N         -2.27853        1.09367        1.69330
C         -0.55564        1.95466        0.28044
C         -0.32598        2.92503        0.77531
N         -0.16898        4.05795        0.79640
C          0.27453        1.69037       -0.78063
N          0.60205        2.03525       -1.78743
N          1.36301        0.86141       -0.98149
C          1.61911       -0.07840       -0.03674
H          3.47392       -2.37928        1.26465
H          0.93522       -2.67322        1.87312
H         -1.75875       -4.16324       -0.72147
H         -0.20748       -3.86002       -0.31902
H         -3.37777       -2.59461       -1.09653
H         -4.16154        0.86212       -0.29731
H         -4.77061       -0.51519       -0.95033
H         -3.06280        0.44701        1.77326
H         -2.57755        1.99410        2.06630
H          0.14533        2.94542       -1.70623
H          1.24572        2.12265       -2.57461
