29
Coordinates from ORCA-job ./opt_b97-3c_parallel
N          5.28475        0.32000        0.30223
C          4.18857        0.62781        0.21340
C          2.80199        0.95496        0.10054
C          2.32322        2.23688        0.15121
C          0.95582        2.05822        0.15300
C          0.45207        3.39239        0.29710
N         -0.21028        3.90534       -0.48011
C          0.61012        0.73457       -0.00189
C         -0.73980        0.20457       -0.03849
C         -1.86657        1.00043        0.32919
C         -3.03396        0.18477        0.14823
C         -4.32932        0.71651        0.44222
N         -5.37362        1.11036        0.68605
C         -2.64180       -1.04911       -0.34296
N         -3.33382       -1.86583       -0.62213
C         -1.20772       -1.03043       -0.42198
C         -0.51099       -2.08587       -1.12039
N          0.15118       -2.97582       -0.36166
C          1.30863       -2.44069        0.16411
N          1.70467       -3.28974        0.74583
N          1.94311       -1.32630        0.00738
C          1.79502       -0.04161       -0.03542
H          2.80098        3.01359       -0.44802
H         -1.86426        2.02066        0.69658
H         -3.53173       -2.85368       -0.77694
H         -4.24225       -1.40225       -0.59162
H         -1.13658       -2.93960       -1.42284
H          1.45140       -4.26603        0.59452
H          2.40913       -3.29411        1.48305
