33
Coordinates from ORCA-job ./opt_b97-3c_parallel
N         -2.24580       -3.26218       -1.69150
C         -1.36267       -2.54210       -1.60436
C         -0.68725       -1.62965       -0.72783
C          0.60549       -2.08409       -0.48866
C          1.54630       -1.60907        0.50788
C          2.39925       -2.62130        1.07456
N          3.05124       -3.43150        1.54978
C          2.02644       -0.28969        0.51164
N          3.01486       -0.00863        0.93664
C          1.45467        0.84928       -0.05256
C          2.03847        2.02791       -0.48990
N          3.02505        2.49287       -0.67191
C          1.02974        2.91798       -0.74401
C         -0.16566        2.39909       -0.48550
N         -1.29670        3.11779       -0.58821
C          0.05745        1.10908       -0.10513
C         -0.77684        0.31485        0.75021
N         -2.00957        0.59844        1.03565
C         -3.27982        0.43883        0.84111
N         -4.31858        0.72588        1.08153
C         -2.77869       -0.67088        0.23207
C         -1.42071       -0.70552        0.10836
H          0.86564       -3.06962       -0.87733
H          3.38701        0.92502        1.11000
H          3.76152       -0.66453        1.16624
H          3.49562        3.16545       -1.27643
H          3.53736        1.61650       -0.76294
H          1.17682        3.95261       -1.06102
H         -1.95722        3.12397        0.18507
H         -1.22943        4.08523       -0.90642
H         -5.12339        0.09906        1.08083
H         -4.68013        1.64630        1.32910
H         -3.36309       -1.58984        0.19260
