32
Coordinates from ORCA-job ./opt_b97-3c_parallel
N          4.29806        1.96983        0.79365
C          3.17618        1.81131        0.65304
C          1.78118        1.55398        0.48115
C          0.86264        2.63367        0.64925
C         -0.46348        2.17958        0.37395
C         -1.53477        3.11766        0.48002
N         -2.41177        3.84339        0.59089
C         -0.36681        0.83222        0.08957
C         -1.40165        0.04381       -0.38450
C         -2.55863        0.41771       -1.03437
N         -3.03910        1.29109       -1.50312
C         -3.36415       -0.68787       -1.11187
C         -2.77427       -1.73122       -0.54765
C         -1.54414       -1.34506       -0.12427
C         -0.88836       -1.79601        1.06769
N         -1.15477       -2.61007        1.76992
N          0.22918       -2.56232        0.78536
C          1.23030       -2.11074       -0.08190
N          1.48033       -3.19331       -0.16390
C          1.62974       -0.78724       -0.30643
C          2.95882       -0.88844       -0.84873
N          3.45892       -1.33829       -1.77341
C          1.01927        0.44059        0.19373
H          1.13327        3.65512        0.90473
H         -3.82496        1.45280       -2.13312
H         -2.51682        2.16657       -1.48326
H         -4.36463       -0.71871       -1.54819
H         -3.20028       -2.72934       -0.46668
H         -1.03471       -3.17492        2.61388
H         -2.10834       -2.24643        1.83431
H          2.17124       -2.96369       -0.88465
H          1.66368       -4.17342        0.05799
