28
Coordinates from ORCA-job ./opt_b97-3c_parallel
N         -3.92889       -0.93086       -0.15721
C         -3.06026       -0.20761        0.01315
C         -2.00072        0.72878        0.22180
C         -2.14940        2.01956        0.63080
C         -0.98224        2.64247        0.55800
C         -0.03693        1.75451        0.14939
C          1.27784        2.09883       -0.32084
C          2.36984        1.25282       -0.51246
N          3.25333        1.80344       -0.88481
C          2.70935       -0.03866        0.07951
C          1.86598       -0.97581        0.66367
N          2.39353       -1.71929        1.29266
C          0.49505       -1.18296        0.26871
C         -0.23051       -2.27999        0.64538
N         -0.72225       -2.70879       -0.49470
C         -0.51400       -1.70487       -1.41390
C         -0.09438       -0.57042       -0.78848
C         -0.62822        0.49063       -0.12683
H         -3.08699        2.47710        0.93763
H         -0.80546        3.68515        0.81130
H          1.40142        3.17064       -0.47175
H          4.19473        1.41654       -0.90524
H          3.35317        2.80908       -0.76106
H          3.78163       -0.24322        0.13457
H          1.96994       -2.62971        1.12336
H          3.39382       -1.87593        1.39859
H         -0.45851       -3.15394        1.27347
H         -0.96753       -2.10142       -2.33446
