25
Coordinates from ORCA-job ./opt_b97-3c_parallel
N         -4.64382       -1.23881       -0.59981
C         -3.62234       -0.76992       -0.39668
C         -2.32825       -0.19608       -0.17913
C         -1.20621       -0.97206       -0.27705
C         -0.20346       -0.07720        0.01284
C          1.20444       -0.44989        0.11650
C          1.67352       -1.79326        0.24265
C          0.89807       -2.97031        0.47822
N          0.29260       -3.92506        0.63868
C          3.03071       -1.91531        0.18209
N          3.43198       -0.68442       -0.10739
C          2.42580        0.26271       -0.13732
N          2.60435        1.54421       -0.63658
C          1.64485        2.48680       -0.38790
N          0.53938        3.11175        0.11639
C         -0.06943        2.25751        0.93775
C         -0.74207        1.16102        0.29381
C         -2.10616        1.16270        0.20311
N         -2.86017        1.94648        0.40074
H         -1.10701       -1.67968       -1.09808
H          3.73411       -2.75949        0.25168
H          1.99942        3.36686       -0.94737
H         -0.68528        3.13217        1.19672
H         -3.82175        1.60716        0.37238
H         -2.91358        2.96183        0.45891
