32
Coordinates from ORCA-job ./opt_b97-3c_parallel
N         -5.48548       -1.44582        0.95049
C         -4.47290       -0.99235        0.67656
C         -3.22619       -0.39500        0.31788
C         -3.04000        0.91404       -0.02157
C         -1.69324        1.00760       -0.29433
C         -0.96766        2.04758       -1.00695
N         -1.57156        2.48585       -1.83039
C         -0.08220        3.14062       -0.65531
C          0.96619        2.81450        0.27560
N          1.53492        3.58674        0.82003
N          1.41314        1.61554        0.46935
C          1.37088        0.35645        0.16702
C          2.51824       -0.51451        0.08691
C          3.86389       -0.04624        0.23519
N          4.95396        0.29560        0.32657
C          2.27222       -1.85828       -0.10988
N          3.13239       -2.89211       -0.20821
C          0.89258       -1.79302       -0.12288
C          0.30102       -3.08455       -0.37115
N         -0.22247       -4.08275       -0.52820
C          0.32302       -0.48623       -0.00784
C         -1.03039       -0.17651       -0.01149
C         -2.01192       -1.12491        0.38380
H         -3.80760        1.53019       -0.48440
H         -2.45483        2.07894       -2.13512
H         -1.55651        3.42931       -2.21834
H         -0.23138        4.18821       -0.91384
H          2.16213        3.47840        1.61421
H          0.87375        4.31873        1.08211
H          2.83714       -3.85523       -0.36578
H          4.14395       -2.78942       -0.27067
H         -1.87841       -2.13818        0.74446
