28
Coordinates from ORCA-job ./opt_b97-3c_parallel
N          5.61394        0.42207        1.33932
C          4.50069        0.41420        1.08292
C          3.11930        0.39597        0.71856
C          2.33344        1.49882        0.56503
C          1.14111        0.95098        0.14739
C          0.19497        1.77995       -0.55263
C         -1.09584        1.35369       -0.82714
C         -1.53899        2.48414       -1.61062
N         -2.02513        3.48408       -1.87505
C         -1.78294        0.85051        0.34609
N         -2.46646        1.57648        0.84356
C         -2.00120       -0.51929        0.40420
C         -3.17389       -1.04886        1.05733
N         -4.12238       -1.43898        1.56207
C         -1.12810       -1.43357       -0.29557
N         -1.49131       -2.75745       -0.48552
C         -0.39866       -3.43667       -0.81544
C          0.65285       -2.62501       -0.78580
C          0.28341       -1.36408       -0.45600
C          1.18213       -0.43277        0.05761
C          2.44558       -0.80984        0.41314
H          2.73153        2.40411        0.11317
H          0.58937        2.76263       -0.82765
H         -2.57360        2.55776        0.58973
H         -3.40768        1.19831        0.94226
H         -0.73286       -4.46837       -1.00226
H          1.66146       -2.94072       -1.04036
H          2.89971       -1.79549        0.44109
