30
Coordinates from ORCA-job ./opt_b97-3c_parallel
N          4.81108       -2.08179        1.37994
C          3.86086       -1.63887        0.92740
C          2.68563       -1.10808        0.31018
C          2.81378        0.09211       -0.46274
C          1.93166        0.46220       -1.41987
C          1.22061        1.37405       -0.71258
N          1.35304        2.75962       -0.64633
C          0.25135        3.18881       -0.01123
N          0.29396        4.29109        0.07093
C         -0.64400        2.21610        0.34573
C         -1.88235        2.36804        1.04254
N         -2.86612        2.54835        1.59693
C          0.00774        1.00795       -0.06827
C         -0.54812       -0.33048       -0.10182
C         -1.89251       -0.57080       -0.18814
N         -2.89718       -0.12426       -0.29069
C         -1.93790       -2.00103       -0.18945
C         -2.90215       -3.06170       -0.22743
N         -4.02703       -3.20857       -0.06722
C         -0.74931       -2.68215       -0.12023
C          0.11999       -1.62255       -0.09787
C          1.50237       -1.94148        0.24249
H          3.78269        0.58566       -0.41696
H          2.26184        0.66711       -2.43606
H          0.84801        5.10451       -0.19453
H         -0.57594        4.66320        0.45780
H         -3.36990        0.56933       -0.86780
H         -3.60235       -0.83104       -0.07551
H         -0.53755       -3.55633       -0.73627
H          1.66249       -2.97271        0.54885
