31
Coordinates from ORCA-job ./opt_b97-3c_parallel
N         -3.11011        2.74157       -1.35487
C         -2.26622        2.13748       -0.88097
C         -1.17747        1.41588       -0.29391
C         -1.34649       -0.00271        0.00348
C         -2.63313       -0.62915       -0.03197
C         -2.52868       -1.95376        0.26779
N         -3.53152       -2.82832        0.41972
C         -1.24373       -2.24241        0.44202
C         -0.48169       -1.12416        0.26829
C          0.94812       -1.12806        0.08763
C          1.66699       -2.28924        0.06557
N          2.62461       -1.70781       -0.62229
C          2.81073       -0.38756       -0.96841
N          3.75876       -0.35961       -1.54147
C          1.72247       -0.04984       -0.20580
C          1.60120        0.70371        0.93096
N          2.11439        1.01514        1.86681
N          0.92437        1.85487        1.01762
C         -0.08889        2.23947        0.21099
N          0.23936        3.28668        0.33817
H         -3.56363       -0.09973       -0.21709
H         -3.39515       -3.82510        0.25645
H         -4.48417       -2.58824        0.14594
H         -0.86943       -3.22663        0.71876
H          1.70797       -3.38385        0.18821
H          4.12139       -1.17580       -2.04008
H          4.40492        0.39486       -1.78473
H          2.62584        1.85543        2.15051
H          1.81544        0.58898        2.74780
H          0.57580        4.15483        0.75516
H         -0.53967        3.55882       -0.26336
