29
Coordinates from ORCA-job ./opt_b97-3c_parallel
N         -4.92531        1.61750       -0.74539
C         -3.96783        1.07667       -0.43411
C         -2.79710        0.36534       -0.01799
C         -1.93988        0.81867        1.02468
N         -1.08484        1.79529        0.61659
C          0.14521        1.30249        0.21038
C          1.18977        2.16865       -0.00902
C          1.11563        3.60274        0.00167
N          1.42301        4.64064       -0.36628
C          2.36785        1.36534       -0.20879
N          3.36581        1.80341       -0.41272
C          2.02625        0.03024       -0.10216
C          2.96892       -1.03164       -0.31155
N          3.75077       -1.84664       -0.48842
C          0.60419       -0.06636        0.14735
C         -0.13554       -1.33984        0.22228
C          0.56759       -2.57439        0.40001
N          1.16822       -3.49023        0.54194
N         -0.47973       -2.91851        0.20506
C         -1.54785       -3.10620       -0.08149
C         -1.44797       -1.68897       -0.00392
C         -2.65186       -0.95800       -0.33903
H         -2.30728        1.83512        1.23641
H          4.19915        1.27229       -0.66107
H          3.51665        2.75922       -0.73250
H          1.45563       -4.44777        0.73239
H          1.94103       -2.88907        0.81990
H         -2.35369       -3.82286       -0.29928
H         -3.47285       -1.49380       -0.80726
