31
Coordinates from ORCA-job ./opt_b97-3c_parallel
N         -3.85872        2.71823       -0.04578
C         -3.20647        1.78293        0.01973
C         -2.34573        0.64168        0.08222
C         -2.78021       -0.63844        0.52857
N         -3.74137       -1.04814        0.88812
C         -1.81717       -1.60375        0.43586
C         -0.73135       -0.89863       -0.02574
C          0.40867       -1.59688       -0.59946
C          0.39368       -2.93743       -0.85075
C          1.62173       -3.41145       -0.70357
C          2.47667       -2.46257       -0.35798
C          1.78585       -1.29050       -0.26185
C          2.19530       -0.15471        0.54462
N          3.04388       -0.26116        1.24874
C          1.59799        1.13446        0.28498
C          1.91016        2.31729        1.03905
N          2.14840        3.28367        1.59885
C          0.99709        1.23721       -1.01943
N          0.71040        2.10265       -1.65460
N         -0.37103        1.39131       -0.95825
C         -1.04897        0.42906       -0.28689
H         -4.15317       -1.97681        0.97103
H         -4.51097       -0.38435        0.96790
H         -1.69297       -2.36717        1.20479
H         -0.47581       -3.52510       -1.13887
H          1.89522       -4.45411       -0.85243
H          3.54251       -2.59998       -0.18663
H          3.72526        0.31293        1.74611
H          3.20901       -1.22135        1.55091
H          0.22890        2.78351       -2.24421
H          1.69550        2.36725       -1.68081
