32
Coordinates from ORCA-job ./opt_b97-3c_parallel
N          5.74197        1.39881       -0.54874
C          4.66658        1.06933       -0.34540
C          3.31204        0.64412       -0.12839
C          3.09201       -0.74183        0.13484
C          1.69170       -0.91544        0.29245
C          1.21946       -2.21351        0.67306
N          1.61661       -3.21621        0.90860
N         -0.01855       -2.49394        0.88001
C         -1.02572       -2.37917        0.08245
C         -1.81958       -1.35871       -0.36704
C         -2.86553       -2.18797       -0.88540
N         -3.35368       -2.13287       -1.91949
C         -1.50273       -0.00914        0.02617
C         -2.53372        0.97193        0.02876
C         -3.94739        0.87157       -0.19094
N         -4.80668        0.50325        0.46772
C         -1.98427        2.17412        0.35034
N         -2.55786        3.36171        0.60795
C         -0.67489        1.97053        0.46604
C         -0.31238        0.66067        0.25678
C          1.03717        0.28959        0.17379
C          2.07046        1.27068       -0.10435
N          2.17078        2.34797       -0.34162
H          3.85317       -1.51242        0.21317
H          1.21077       -3.96948        1.46131
H          2.01820       -2.55627        1.57178
H         -0.95345       -3.47905        0.07834
H         -2.05735        4.05942        1.15532
H         -3.53820        3.39848        0.88322
H         -0.00291        2.75235        0.80918
H          2.97053        2.74860       -0.82999
H          1.35713        2.50728       -0.93341
