31
Coordinates from ORCA-job ./opt_b97-3c_parallel
N          4.97801       -0.90416        0.18231
C          4.00868       -0.30813        0.08721
C          2.76114        0.37870       -0.02478
C          2.63400        1.73748       -0.15283
C          1.27363        1.94582       -0.07423
C          1.02870        3.35540       -0.19583
N          0.29746        3.54005       -1.05300
C          0.59050        0.75544        0.02392
C         -0.83931        0.58119        0.16701
C         -1.69603        1.62722        0.65371
N         -1.95748        2.61988        1.05474
N         -2.98133        1.18946        0.64698
C         -2.94746       -0.10593        0.14230
N         -4.00507       -0.42869        0.06020
C         -1.60483       -0.51481       -0.11417
C         -1.30167       -1.62212       -1.00144
N         -1.94496       -2.36712       -1.50201
N         -0.73944       -2.72716       -0.46363
C          0.45315       -2.52183        0.21387
N          0.71563       -3.47425        0.70479
N          1.30522       -1.55816        0.33359
C          1.51860       -0.31117        0.05798
H          3.26275        2.28577       -0.85549
H         -1.13048        3.17218        0.82581
H         -2.55115        3.23203        1.61517
H         -4.83343        0.02201        0.45524
H         -4.32988       -1.34744       -0.24760
H         -2.26946       -1.62263       -2.11969
H         -1.79285       -3.17103       -2.11444
H          0.34425       -4.40254        0.49700
H          1.36522       -3.61142        1.48134
