32
Coordinates from ORCA-job ./opt_b97-3c_parallel
N         -5.29263       -2.03812       -0.89876
C         -4.29366       -1.55144       -0.63268
C         -3.06544       -0.90338       -0.28897
C         -1.90983       -1.64361       -0.25436
C         -1.01655       -0.66502        0.09520
C          0.39059       -0.86344        0.30662
C          0.98908       -2.15320        0.40102
C          2.35741       -2.15585        0.47485
N          2.97193       -3.22853        0.99620
C          2.61374       -0.82910        0.22335
C          3.97383       -0.41563        0.05907
N          5.05264       -0.05483       -0.04656
C          1.47442        0.04322        0.14216
C          1.53016        1.34690       -0.33905
C          2.48622        2.24842       -0.91271
N          3.06109        2.27094       -1.90193
C          0.61137        2.38776       -0.42285
N         -0.54414        2.59025        0.33660
C         -0.96534        1.57551        1.09793
N         -1.42531        2.47492        1.55667
C         -1.61986        0.53225        0.34746
C         -2.96783        0.46849        0.12424
N         -3.78230        1.20762        0.25972
H         -1.68101       -2.35449       -1.04682
H          0.38011       -3.05235        0.43081
H          2.60167       -4.16415        0.83668
H          3.98941       -3.29202        0.97558
H          0.28400        3.40915       -0.67915
H         -2.34750        2.06015        1.70169
H         -1.35036        3.22572        2.24380
H         -4.15695        2.11009       -0.03195
H         -4.53508        0.53663        0.10134
