26
Coordinates from ORCA-job ./opt_b97-3c_parallel
N          4.90893       -0.27436        0.26481
C          3.77927       -0.11973        0.20974
C          2.35567        0.03852        0.11983
C          1.84012        1.28781       -0.04518
C          0.49078        1.02056       -0.09772
C         -0.46018        1.92666       -0.69670
N         -0.05718        2.84195       -1.17182
C         -1.32342        2.48798        0.31094
C         -2.26551        1.72085        0.95243
N         -2.85429        0.53271        0.74430
C         -2.35181       -0.51532       -0.01592
N         -3.17851       -1.58890       -0.24707
C         -2.39928       -2.66231       -0.64106
N         -1.06874       -2.29012       -0.57461
C         -1.00704       -0.96364       -0.20401
C          0.21476       -0.32748       -0.01546
C          1.39384       -1.02021        0.13584
N          1.71940       -2.07376        0.24448
H          2.22637        2.13422        0.51870
H          0.88640        2.77902       -1.55286
H         -0.33282        3.81979       -1.25903
H         -1.34078        3.56495        0.50459
H         -2.87839        2.35222        1.61420
H         -2.58081       -3.71122       -0.92417
H          1.35518       -3.00416        0.44231
H          2.73529       -2.15990        0.23467
