25
Coordinates from ORCA-job ./opt_b97-3c_parallel
N          4.16829        0.75038        0.34009
C          3.22237        0.27160        0.03457
C          2.49852       -0.87551       -0.09616
C          1.04381       -1.14506       -0.23401
C          0.55038       -2.54097       -0.33378
C         -0.80240       -2.61367       -0.44311
N         -1.47078       -1.80368        0.31482
C         -2.13925       -0.69867        0.30869
N         -3.11799       -1.16255        0.51209
C         -1.63780        0.63888        0.10027
C         -2.45814        1.73068        0.12135
N         -1.62449        2.75491       -0.02331
C         -0.29029        2.41994       -0.15285
C         -0.26345        1.00573       -0.08516
C          0.99166        0.28630       -0.18343
N          2.13655        0.87262       -0.32814
H          5.06288        0.26998        0.43469
H          4.35069        1.73167        0.54921
H          3.00421       -1.83993       -0.10576
H          1.14412       -3.45234       -0.32367
H         -1.47911       -3.34460       -0.91169
H         -3.50696       -0.47400        1.15310
H         -3.52097       -2.06205        0.76896
H         -3.54967        1.83555        0.21861
H         -0.14016        3.50842       -0.22396
