30
Coordinates from ORCA-job ./opt_b97-3c_parallel
N          4.88146       -1.28283        0.54832
C          3.76614       -1.02708        0.53653
C          2.89773       -0.46129        0.13772
C          2.16696       -1.07412       -0.84116
N          1.10299       -1.64169       -0.36551
C         -0.04896       -1.11863       -0.09156
C         -1.23431       -1.91846        0.06831
C         -1.18907       -3.35330        0.01881
N         -1.16914       -4.49619        0.00997
C         -2.43333       -1.25924        0.24973
N         -3.62805       -1.86671        0.41652
C         -1.93499        0.02105        0.16962
C         -3.03977        0.91923        0.34084
N         -3.94320        1.56164        0.62109
C         -0.52191        0.15250        0.00592
C          0.16183        1.35693       -0.10320
C         -0.34360        2.61986       -0.34769
N         -1.24350        3.21966       -0.56498
C          0.71045        3.49720       -0.34759
C          1.84986        2.85721       -0.13717
C          1.58673        1.53589        0.01698
C          2.55603        0.74950        0.59125
H          2.24942       -1.86702       -1.60012
H         -4.42329       -1.34023        0.77504
H         -3.67589       -2.81225        0.79260
H         -1.72467        4.10919       -0.68279
H         -1.67630        2.56451       -1.21295
H          0.65256        4.57945       -0.48289
H          2.83100        3.32306       -0.07627
H          3.14404        1.19756        1.39402
