27
Coordinates from ORCA-job ./opt_b97-3c_parallel
N          4.66956        1.21208       -0.32164
C          3.64014        0.71536       -0.31807
C          2.35268        0.08699       -0.27027
C          1.22538        0.82135       -0.46833
C          0.22639       -0.09443       -0.24108
C         -1.11725        0.41752        0.01536
C         -1.35176        1.75844        0.14465
C         -1.05635        3.15673        0.16039
N         -0.23942        3.94839        0.03437
C         -2.72086        1.89354        0.55593
N         -3.31966        0.69108        0.65510
C         -2.35693       -0.23215        0.30152
C         -2.72120       -1.52915        0.05990
C         -1.95363       -2.20487       -0.82516
C         -1.16765       -2.96597       -0.03340
C          0.17731       -2.60551        0.28179
C          0.74827       -1.37168       -0.01180
C          2.12080       -1.29491       -0.00540
N          2.94051       -2.02168        0.15920
H          1.16153        1.53015       -1.29213
H         -3.58901        2.50565        0.84335
H         -3.72434       -1.87570        0.28793
H         -2.38962       -2.61483       -1.73390
H         -1.46093       -3.98379        0.20454
H          0.78589       -3.42578        0.65119
H          2.79422       -2.61526        0.97291
H          3.90909       -1.70777        0.18733
