28
Coordinates from ORCA-job ./opt_b97-3c_parallel
N          5.68258        0.10494       -0.15534
C          4.55908        0.26905       -0.02613
C          3.15255        0.48321        0.09110
C          2.60819        1.77443        0.31079
C          1.22401        1.50027        0.30007
C          0.28276        2.55525        0.50040
N         -0.65689        3.11204        0.61893
C         -1.43301        2.36708        0.38742
C         -2.26956        1.24792        0.09072
C         -3.67954        1.43038       -0.07885
N         -4.80026        1.57278       -0.25180
C         -1.61703       -0.04492        0.02320
C         -2.39404       -1.23774       -0.13330
C         -1.69212       -2.41991       -0.16891
N         -2.54399       -3.45987       -0.10333
C         -0.42351       -1.89169       -0.09348
C          0.37407       -3.08077       -0.16643
N          1.19471       -3.76043        0.24841
C         -0.31262       -0.47153        0.03928
C          1.00142        0.15765        0.09854
C          2.20624       -0.49731       -0.04155
H          3.12139        2.72221        0.43976
H          0.75435        3.53855        0.65936
H         -2.03074        3.29267        0.43969
H         -3.47759       -1.18803       -0.20055
H         -3.47908       -3.33340        0.27937
H         -2.20547       -4.37292        0.19608
H          2.33573       -1.25715       -0.80847
