30
Coordinates from ORCA-job ./opt_b97-3c_parallel
N          4.60806       -0.53183        1.90098
C          3.63690       -0.51805        1.29845
C          2.40444       -0.53848        0.55879
C          2.06311       -1.86515        0.35969
C          1.09954       -2.42090       -0.45263
C         -0.17676       -1.97240       -0.78316
N         -0.67369       -2.84670       -1.24896
C         -0.85517       -0.85461       -0.15246
C         -2.27594       -0.91033        0.12243
N         -2.97522       -1.77187        0.14762
C         -2.65097        0.40343        0.36068
C         -4.00699        0.77120        0.69308
N         -5.07793        1.04609        0.98292
C         -1.57888        1.25719        0.17814
N         -1.73976        2.35025        0.28158
C         -0.49090        0.46618       -0.12317
C          0.75763        1.01926       -0.58830
N          0.87987        2.29195       -0.97645
C          2.18206        2.57616       -1.04528
N          2.96468        1.53055       -0.60408
C          2.06884        0.50243       -0.37770
H          2.73677       -2.61498        0.77401
H          1.36474       -3.45286       -0.70595
H         -1.54408       -2.44860       -1.59905
H         -0.57877       -3.76545       -1.67807
H         -3.78956       -1.80345        0.75862
H         -2.43395       -2.61646        0.32467
H         -2.56774        2.94347        0.27170
H         -1.03339        2.81954       -0.28342
H          2.63297        3.54241       -1.31767
