25
Coordinates from ORCA-job ./opt_b97-3c_parallel
N          4.88380        0.22755        0.00157
C          3.76987       -0.02536        0.00175
C          2.36308       -0.29094        0.00104
C          1.93273       -1.63818        0.00020
C          0.51119       -1.68729       -0.00164
C         -0.01590       -3.02172       -0.00365
N         -0.40274       -4.09636       -0.00752
C          0.06769       -0.36654       -0.00042
C         -1.38510       -0.15094        0.00094
C         -2.27266       -1.18948        0.00037
N         -3.50526       -0.71373        0.00818
C         -3.50103        0.62379        0.01352
C         -2.14719        1.05983        0.00885
C         -1.94290        2.41396        0.01210
C         -0.75504        3.04723       -0.01030
C          0.58925        2.98625        0.00079
C          1.47410        1.87411        0.00213
C          1.23920        0.50765        0.00093
H          2.59045       -2.50529        0.00043
H         -2.62778       -2.23095       -0.00083
H         -4.42326        1.22467        0.01904
H         -2.82639        3.04731        0.01874
H         -0.99443        4.10896       -0.03047
H          1.11858        3.93520       -0.00139
H          2.50402        2.21583        0.00263
