30
Coordinates from ORCA-job ./opt_b97-3c_parallel
N         -4.55132        0.75168       -0.69501
C         -3.68085        0.03655       -0.50193
C         -2.59463       -0.87203       -0.30155
C         -2.78956       -2.21295       -0.46725
N         -1.63243       -2.81319       -0.21027
C         -0.65531       -1.86084        0.01393
C          0.58854       -2.26344        0.60729
C          1.58021       -1.24378        0.85563
N          2.27340       -1.89930        1.42226
C          1.94701       -0.61998       -0.39644
C          3.01331       -1.17197       -1.19825
N          3.87731       -1.58661       -1.82322
C          1.73150        0.74865       -0.41855
N          2.39111        1.49368       -0.91600
C          0.53481        1.30404        0.19613
C          0.41251        2.71601        0.42598
N          0.61497        3.79656        0.51101
N         -0.61991        2.34307        0.63845
C         -1.60612        1.81500        0.65142
C         -0.70816        0.75418        0.32897
C         -1.23207       -0.55866       -0.02202
H         -3.66870       -2.84505       -0.66318
H          0.65214       -3.30534        0.94273
H          3.20319       -1.55963        1.18067
H          2.39843       -2.82629        1.82505
H          1.88952        2.21088       -1.43775
H          3.24048        1.28709       -1.43946
H          0.53845        4.37499        1.34464
H          1.41867        3.18569        0.64447
H         -2.49396        2.42529        0.87527
