31
Coordinates from ORCA-job ./opt_b97-3c_parallel
N          3.67680        2.31337       -0.76798
C          2.56632        2.16769       -0.53944
C          1.16674        2.01388       -0.29046
C          0.31300        3.00977       -0.65958
N         -0.86637        2.43274       -0.46501
C         -0.89641        1.12162        0.01809
C         -1.95623        0.32926        0.43004
C         -2.44469        0.95552        1.21394
N         -3.07270        1.21633        2.13460
C         -2.45893       -0.51438       -0.48066
N         -3.78906       -0.55608       -0.70894
C         -1.70235       -1.36448       -1.18067
C         -0.71428       -2.09002       -0.54054
N         -0.93461       -3.17188       -0.62740
C          0.48257       -1.71715        0.18441
C          1.48459       -2.63290        0.63404
C          2.62408       -2.05097        1.13052
C          2.37483       -0.71294        0.90446
N          3.30843       -0.23348        1.24801
C          1.06347       -0.45279        0.39323
C          0.48583        0.81882        0.07349
H          0.51098        4.02694       -1.02979
H         -4.22506       -1.42446       -1.01274
H         -4.42679       -0.09881       -0.05912
H         -2.20287       -1.86738       -2.01403
H         -0.02987       -3.50943       -0.95036
H         -1.64320       -3.67725       -1.15599
H          1.36333       -3.70606        0.52553
H          3.04247       -2.42176        2.06861
H          3.99697       -0.35372        1.98857
H          3.69726        0.44495        0.59459
