35
Coordinates from ORCA-job ./opt_b97-3c_parallel
N         -1.84972       -3.54743       -1.46306
C         -1.13118       -3.29180       -0.60830
C         -0.47296       -2.03817       -0.30582
C         -1.36913       -1.00710        0.24339
C         -2.68351       -1.37120        0.68120
C         -3.38954       -0.14749        0.90082
N         -4.40499        0.14327        1.22125
N         -2.59754        0.89235        0.59149
C         -1.36364        0.37433        0.22798
C         -0.34762        1.29143       -0.22578
C         -0.52783        2.60999       -0.56706
N         -1.34910        3.33755       -0.69984
C          0.73186        3.10113       -0.78092
C          1.66793        2.19050       -0.52546
N          2.98241        2.39959       -0.69308
C          1.04225        1.05361       -0.10657
C          1.48241        0.06063        0.71458
N          1.52416        0.45508        1.99934
C          1.79715       -0.94313       -0.14192
C          3.23782       -0.93111       -0.25241
N          4.37936       -0.93120       -0.30325
C          0.88657       -1.95610       -0.64867
N          1.44818       -2.74011       -1.20507
H         -3.10139       -2.36640        0.80006
H         -4.70023        1.08927        1.46164
H         -5.21764       -0.45410        1.37347
H         -1.07111        4.02565       -1.39938
H         -1.94606        3.83181       -0.03840
H          0.95439        4.10490       -1.14496
H          3.31184        3.16372       -1.28148
H          3.61992        1.61361       -0.81911
H          1.57487        1.45276        2.20479
H          2.17393       -0.00293        2.63706
H          2.40772       -3.00759       -0.98503
H          1.13022       -3.38626       -1.92689
