27
Coordinates from ORCA-job ./opt_b97-3c_parallel
N          2.89086       -1.80910        1.99721
C          2.16423       -1.39018        1.22165
C          1.22464       -0.89444        0.26500
C          0.45176       -2.02543        0.12288
N         -0.64962       -2.30726       -0.60497
C         -1.62308       -1.35469       -0.91961
N         -2.14959       -2.18007       -1.43131
C         -1.90866       -0.17777       -0.12103
C         -3.24654        0.23101        0.16231
N         -4.26299       -0.16186        0.00160
N         -2.58990        1.03703        0.58447
C         -1.90066        1.87078        0.89712
C         -1.07207        0.87637        0.30099
C          0.32804        1.05551        0.01878
N          0.85943        2.27714        0.36553
C          2.07842        2.23874       -0.12328
C          2.10270        1.04461       -0.77769
C          3.44983        0.75421       -1.15915
N          4.52307        0.48359       -1.44182
C          1.09649        0.13652       -0.61767
H          0.38749       -3.07448        0.45502
H         -2.97308       -1.57652       -1.46938
H         -2.34955       -2.96350       -2.05258
H         -4.57109        0.76760        0.28852
H         -4.88297       -0.82021        0.47296
H         -1.78291        2.88039        1.32071
H          2.67435        3.15168        0.03110
