30
Coordinates from ORCA-job ./opt_b97-3c_parallel
N         -3.09041        3.26739       -1.16787
C         -2.31289        2.50771       -0.81704
C         -1.31237        1.56792       -0.41296
C          0.07042        1.87159       -0.59773
C          1.07636        0.96291       -0.10481
C          2.36278        1.53746        0.15996
N          3.08461        2.36700        0.24144
N          3.22462        0.56474        0.52515
C          2.49398       -0.60893        0.44455
N          3.40184       -1.17361        0.73359
C          1.13657       -0.40835        0.03782
C          0.33619       -1.51889       -0.27796
C          0.97136       -2.72403       -0.40068
C         -0.17344       -3.44880       -0.53260
N         -0.66104       -2.52688       -0.88430
C         -1.08146       -1.56171       -0.56391
C         -2.00564       -0.50625       -0.28778
C         -3.40462       -0.69600       -0.51965
N         -4.52591       -0.85348       -0.67001
C         -1.71692        0.59666        0.44682
N         -1.65612        0.82042        1.77172
H          0.34732        2.86804       -0.93003
H          2.48196        3.16860        0.42294
H          4.04167        2.71760        0.26227
H          4.41181       -1.21267        0.87161
H          3.04008       -2.08194        1.02379
H          1.79120       -2.86853       -1.10698
H         -0.55117       -4.33519       -1.06633
H         -1.74274        1.77578        2.11803
H         -2.20695        0.23624        2.39996
