34
Coordinates from ORCA-job ./opt_b97-3c_parallel
N         -4.44183       -2.68405        0.75225
C         -3.56123       -2.00253        0.49767
C         -2.46591       -1.11608        0.20697
C         -2.50769        0.17930       -0.28192
N         -3.44872        0.69523       -0.56018
C         -1.21536        0.63728       -0.35575
C         -0.88044        1.83161       -1.11048
N         -1.37542        2.66327       -1.64528
N         -0.47992        2.98000       -0.43494
C          0.58267        2.86075        0.43852
N          0.65853        3.84382        0.93075
N          1.55798        2.05277        0.69129
C          1.81389        0.83895        0.33065
C          3.15245        0.32629        0.30719
C          3.33018       -1.01194        0.03281
N          4.62989       -1.35542       -0.02343
C          2.00419       -1.35708       -0.06675
C          2.05587       -2.75664       -0.37336
N          1.57502       -3.12301       -1.34422
C          1.08832       -0.27268        0.06241
C         -0.35637       -0.36458        0.02126
C         -1.07234       -1.48453        0.38793
N         -0.77854       -2.46582        0.80400
H         -4.22385        0.05357       -0.38884
H         -3.87389        1.57630       -0.84642
H         -1.36968        3.31932       -2.42567
H         -1.91681        1.85645       -1.95638
H         -0.00063        4.59137        0.71484
H          0.93915        3.98392        1.90058
H          3.97443        0.99561        0.54975
H          4.90113       -2.25808       -0.41228
H          5.33902       -0.67616       -0.29434
H         -1.55113       -3.05574        1.11158
H          0.00216       -3.09356        0.61810
