28
Coordinates from ORCA-job ./opt_b97-3c_parallel
N         -5.14556        0.95372        0.94802
C         -4.03111        0.84652        0.71609
C         -2.64064        0.73535        0.38700
C         -2.29422        1.89641       -0.23659
C         -1.28411        2.64164        0.18127
C         -0.44905        2.24755        1.17914
C          0.61409        1.37101        0.79885
C          1.95869        1.79740        0.94481
C          2.76523        0.89372        0.18672
C          4.18328        1.05926        0.03544
N          5.30649        1.20774       -0.11412
C          1.91966       -0.13541       -0.39708
N          2.45883       -0.86834       -1.02326
C          0.56870        0.16965        0.01790
C         -0.56782       -0.75395       -0.06477
C         -0.46091       -2.19120       -0.15630
C          0.66729       -3.05961       -0.27969
N          1.54177       -3.79223       -0.35650
C         -1.76171       -2.71576        0.13185
N         -2.64799       -1.69798        0.41058
C         -1.94065       -0.52084        0.29696
H         -2.88839        2.24949       -1.07839
H         -1.07096        3.57418       -0.33622
H         -0.16880        3.01793        1.89141
H          2.30009        2.70573        1.43149
H          2.09103       -1.67053       -1.53188
H          3.47290       -0.96619       -1.02372
H         -2.09259       -3.76240        0.20669
