26
Coordinates from ORCA-job ./opt_b97-3c_parallel
N          3.72424        0.41906        0.14287
C          2.43134        0.77460        0.20458
C          1.86409        2.00388        0.43505
C          0.51649        2.24906        0.37017
C          0.12360        0.96593        0.16461
C         -1.20405        0.64652       -0.33662
C         -2.12914        1.58705       -0.67728
C         -3.32847        1.02763       -0.61301
C         -3.26106       -0.24292       -0.24322
C         -1.95331       -0.55485       -0.04027
N         -1.52683       -1.48542        0.82975
C         -0.29075       -1.98346        0.82333
N          0.38291       -2.13553       -0.37637
C          1.19426       -1.08386       -0.76514
N          1.61597       -1.90650       -1.36919
C          1.26192        0.10676        0.04436
H          4.04101       -0.44268        0.58616
H          4.44214        1.11979        0.32856
H          2.51790        2.83086        0.69581
H          0.02502        2.88016        1.10738
H         -1.92682        2.61855       -0.95889
H         -4.25728        1.54828       -0.83646
H         -4.10707       -0.91515       -0.11694
H         -0.97469       -2.39960        1.58072
H          2.03349       -2.70582       -1.84394
H          2.25202       -1.12174       -1.51805
