30
Coordinates from ORCA-job ./opt_b97-3c_parallel
N         -4.14442        1.65661        1.58226
C         -3.32746        1.07474        1.03638
C         -2.30253        0.37866        0.29839
C         -1.78001        0.98058       -0.90248
N         -2.09294        1.92571       -1.39918
N         -0.79770        1.91280       -0.65070
C          0.35253        1.37331       -0.19552
C          1.42976        2.26139        0.09180
C          2.65824        1.70699        0.34064
N          3.75381        2.47149        0.47641
C          2.31783        0.39561        0.10422
C          3.35841       -0.57436        0.27026
N          4.17125       -1.36132        0.42852
C          0.92710        0.13576       -0.16938
C          0.40312       -1.17875       -0.52071
C          1.19265       -2.23715       -0.86952
N          0.44523       -3.31800       -0.72255
C         -0.83033       -3.03768       -0.28101
C         -0.91832       -1.61907       -0.16530
C         -1.99377       -0.96577        0.43193
N         -2.66997       -1.60371        1.04076
H         -3.08503        1.68980       -1.35211
H         -2.02521        2.67237       -2.09183
H          1.28808        3.33762        0.04980
H          4.64584        2.04548        0.72865
H          3.70430        3.38079        0.93343
H          2.05900       -2.82554       -1.21017
H         -1.33021       -4.00929       -0.14696
H         -3.53856       -1.48365        1.56262
H         -2.23685       -2.44922        1.41322
