29
Coordinates from ORCA-job ./opt_b97-3c_parallel
N         -2.77115       -3.76184       -0.17200
C         -1.80243       -3.16292       -0.08660
C         -0.61351       -2.37928        0.04106
C          0.62874       -3.03454        0.25482
C          1.71385       -2.21820        0.37553
C          1.16240       -0.96812        0.22681
C          2.04841        0.16195       -0.04922
C          3.44861       -0.00847       -0.31129
N          4.56452       -0.09662       -0.53680
C          1.83438        1.53968       -0.07924
N          2.21120        2.57294       -0.24822
N          0.90054        2.34765        0.45436
C         -0.09499        1.66630        1.11071
C         -1.10497        1.23487        0.20437
C         -2.22051        1.97455       -0.09304
N         -2.60369        2.98972        0.11697
C         -3.02335        1.07941       -0.74172
C         -2.44161       -0.11514       -0.79457
C         -1.19830       -0.04748       -0.23749
C         -0.21556       -1.06991        0.05055
H          0.68253       -4.11799        0.31404
H          2.47122       -2.41622        1.13128
H          2.88842        2.28834       -0.95673
H          2.53956        3.47557        0.09696
H         -0.35344        2.69754        1.39725
H         -2.47152        3.99874        0.16251
H         -3.61184        2.84285        0.07316
H         -4.00870        1.29758       -1.15283
H         -2.87686       -0.98504       -1.27954
