27
Coordinates from ORCA-job ./opt_b97-3c_parallel
N          3.93577        0.39914        0.04528
C          2.87454        0.68454        0.17857
C          2.05684        1.77687        0.27847
C          0.76479        1.34139        0.20821
N         -0.10631        2.35221        0.33882
C         -1.40106        1.96692        0.14489
N         -1.82859        2.96136        0.38982
N         -2.64569        1.46612       -0.07179
C         -2.76507        0.12351       -0.36470
C         -1.80231       -0.95433       -0.27383
C         -2.22609       -2.23006       -0.44428
C         -1.20081       -3.03105       -0.21703
C         -0.07906       -2.38116        0.07061
N          1.03209       -3.04525        0.43086
C         -0.37841       -1.04215        0.01092
C          0.66805       -0.02796        0.10234
N          1.94804       -0.22283        0.18464
H          4.68943        0.97893       -0.33042
H          4.39546       -0.46195        0.34847
H          2.35597        2.72728       -0.16448
H         -2.81380        3.17609        0.56376
H         -1.34632        3.81834        0.66376
H         -3.83175       -0.06080       -0.57043
H         -3.23845       -2.54826       -0.68817
H         -1.28179       -4.11711       -0.24177
H          1.06762       -4.06411        0.37153
H          1.96525       -2.68337        0.25457
