28
Coordinates from ORCA-job ./opt_b97-3c_parallel
N         -5.37974       -0.71100       -0.42330
C         -4.24872       -0.62969       -0.28684
C         -2.82339       -0.56883       -0.11099
C         -2.14939       -1.80650        0.17700
C         -0.83368       -2.17962        0.29259
C          0.38208       -1.43744        0.15790
C          1.58287       -2.20554        0.13511
C          2.76809       -1.53864       -0.00356
N          3.98032       -2.11822        0.04269
C          2.22275       -0.27735       -0.05280
C          3.21370        0.69086       -0.42560
N          4.03325        1.43492       -0.71104
C          0.78393       -0.14482        0.06948
C          0.07733        1.11988        0.09768
C          0.78862        2.35011        0.29288
C         -0.08170        3.37723        0.24826
C         -1.28271        2.86751        0.05695
C         -1.25029        1.49813       -0.00152
C         -2.47914        0.77378       -0.18784
H         -2.84759       -2.63604        0.25359
H         -0.69215       -3.24659        0.43773
H          1.55317       -3.28935        0.20518
H          4.09934       -3.09740       -0.20877
H          4.79365       -1.60528       -0.29571
H          1.82557        2.45340        0.57301
H          0.16531        4.43251        0.33519
H         -2.18596        3.46795       -0.02546
H         -3.29855        1.47525       -0.34838
