27
Coordinates from ORCA-job ./opt_b97-3c_parallel
N          1.71091       -0.90839       -2.56521
C          2.24474       -0.47397       -1.64895
C          2.01058       -0.26151       -0.58431
C          1.58971       -1.21604        0.30366
N          2.15453       -1.82387        1.03623
N          0.56900       -2.01791        0.68106
C         -0.68631       -1.95632        0.17148
N         -0.73866       -3.01208        0.50798
C         -1.10856       -0.83782       -0.65513
C         -2.23467       -0.91845       -1.42046
N         -2.94753        0.11307       -1.02931
C         -2.40272        1.04128       -0.17204
N         -3.22510        1.77076       -0.03717
C         -1.14955        0.48783       -0.27819
C         -0.07428        1.25937       -0.05087
N         -0.18112        2.51989        0.33541
C          1.09562        2.85955        0.49174
N          1.96114        1.84579        0.19803
C          1.19905        0.76771       -0.19632
H          2.67526       -2.63604        0.70279
H          2.84068       -1.22192        1.49233
H         -0.96490       -3.26831        1.47248
H         -0.50583       -3.89814        0.05262
H         -2.97526       -1.40376       -2.07644
H         -2.77591        2.65242        0.22292
H         -4.21741        1.99594       -0.13703
H          1.65482        3.75880        0.79827
