28
Coordinates from ORCA-job ./opt_b97-3c_parallel
N          4.69606       -1.18520        0.65011
C          3.60881       -0.86136        0.51856
C          2.23783       -0.47790        0.32293
C          1.88206        0.90818        0.12030
N          2.48200        1.83487        0.05016
C          0.45973        0.85992       -0.02985
C         -0.30935        1.94685       -0.56702
N         -0.48381        2.30526       -1.59403
C         -0.80987        2.46118        0.67001
C         -2.10277        1.99147        1.10033
N         -2.84495        1.05798        0.46531
C         -2.53812       -0.08841       -0.18795
N         -3.54343       -0.94584       -0.56541
C         -2.96801       -2.17715       -0.83979
N         -1.60557       -2.12317       -0.59581
C         -1.31438       -0.83590       -0.20612
C         -0.01652       -0.41053        0.02729
C          1.10765       -1.28210        0.23711
N          1.18619       -2.38311        0.32960
H          3.42217        1.45109        0.14070
H          2.58934        2.84580       -0.01364
H          0.44908        2.06842       -1.93307
H         -0.66917        3.25188       -1.92665
H         -0.35319        3.30185        1.18743
H         -2.26170        2.82771        1.79842
H         -3.43483       -3.12056       -1.16381
H          0.77515       -3.13650       -0.21929
H          2.11541       -2.70434        0.60218
