36
Coordinates from ORCA-job ./opt_b97-3c_parallel
N          0.64101        3.91032       -2.28584
C          0.47565        3.11641       -1.47803
C          0.62146        2.40751       -0.62972
C         -0.68867        2.25040       -0.22053
C         -1.42809        1.02905       -0.01880
C         -2.84905        1.05168        0.15783
N         -3.53219        1.91630        0.25675
C         -3.25221       -0.33467        0.14247
C         -4.61429       -0.77363        0.29948
N         -5.68761       -1.13450        0.45493
C         -2.09911       -1.19902       -0.02655
N         -2.27605       -2.28958        0.01432
C         -0.96812       -0.31414       -0.09994
C          0.40490       -0.76884       -0.06322
C          0.82498       -2.01427       -0.47525
C          0.32969       -3.18929       -1.13667
N         -0.08733       -3.83995       -1.97760
C          2.23055       -2.09471       -0.16622
N          2.98964       -2.89437       -0.30219
C          2.62314       -0.90791        0.42477
C          3.91511       -0.53200        0.93308
N          4.92726       -0.23561        1.37352
C          1.48871       -0.02391        0.51291
C          1.56726        1.20565        1.12629
C          1.53079        2.28140        0.34108
N          2.45663        3.24008        0.54158
H         -1.28459        3.14016        0.01025
H         -3.38318        2.77694        0.77965
H         -4.49253        1.62599        0.43376
H         -1.87543       -2.93898       -0.66115
H         -3.18436       -2.66904        0.27672
H          3.73304       -3.13014        0.35331
H          2.61806       -3.77451       -0.65622
H          2.22961        1.24609        1.98919
H          2.55602        3.99447       -0.13637
H          3.38995        2.98653        0.86059
