27
Coordinates from ORCA-job ./opt_b97-3c_parallel
N          4.88710        1.80289       -0.09128
C          3.87478        1.27377       -0.05680
C          2.62272        0.58637       -0.04144
C          2.54789       -0.81508        0.08738
C          1.15173       -1.08118        0.06529
C          0.86723       -2.47388        0.23258
C         -0.34677       -3.21578        0.12717
C         -1.70694       -2.84899       -0.11564
C         -2.43101       -1.61309       -0.13188
C         -2.09995       -0.22126        0.02645
C         -3.16700        0.62622        0.05655
C         -2.48666        1.80731        0.00188
N         -3.07313        2.74250        0.03395
C         -1.12752        1.84190        0.11642
C         -0.86434        0.50003        0.03958
C          0.47239        0.11611       -0.04210
C          1.39079        1.14532       -0.17676
H          3.37063       -1.51600        0.19479
H          1.73667       -3.11117        0.36863
H         -0.19776       -4.28940        0.19067
H         -2.35738       -3.71220       -0.21913
H         -3.49834       -1.78895       -0.23416
H         -4.03796        0.45347       -0.57453
H         -2.77591        3.67916        0.30006
H         -4.08994        2.72939        0.08725
H         -0.65775        2.46014        0.88039
H          1.24745        1.92889       -0.91898
