35
Coordinates from ORCA-job ./opt_b97-3c_parallel
N          5.17301       -1.51965        1.24630
C          4.11664       -1.30655        0.86062
C          2.78826       -1.01796        0.41143
C          2.09486       -2.02823       -0.19997
C          0.89499       -1.41076       -0.44000
C         -0.12673       -1.70442       -1.40728
N          0.06494       -1.84482       -2.48350
C         -0.78648       -2.62179       -0.53531
C         -1.89187       -2.13087        0.26842
N         -2.35227       -3.05347        0.67590
C         -2.39087       -0.75556        0.31663
C         -3.68263       -0.56636        0.91758
N         -4.68813       -0.41217        1.43970
C         -1.65707        0.44520       -0.08906
C         -2.28432        1.73474       -0.12216
C         -1.45656        2.81592       -0.28705
N         -2.05630        4.01573       -0.22522
C         -0.23329        2.19675       -0.24233
C          0.90908        3.00596       -0.53664
N          1.81176        3.65578       -0.80670
C         -0.26627        0.76516       -0.14482
C          0.86576       -0.12134        0.00242
C          2.11384        0.24050        0.58549
N          2.58616        1.09783        1.09766
H          2.56318       -2.66145       -0.94990
H         -0.04872       -2.72358       -2.98547
H          1.02017       -1.53244       -2.65026
H         -0.54441       -3.68697       -0.56114
H         -2.53981       -3.82356        0.03607
H         -3.25377       -2.76512        1.05257
H         -3.35915        1.83728       -0.00456
H         -3.02503        4.12363       -0.51985
H         -1.54723        4.85675       -0.49130
H          3.47209        1.01482        1.59289
H          2.61390        1.98183        0.59239
