29
Coordinates from ORCA-job ./opt_b97-3c_parallel
N          4.57606        2.05337       -0.01433
C          3.59844        1.46381        0.03213
C          2.34826        0.74994        0.05875
C          2.31786       -0.66739        0.32358
N          3.17304       -1.34100        0.52817
C          0.93235       -1.02746        0.24358
C          0.62291       -2.41425        0.54054
N         -0.44438       -3.08618       -0.01670
C         -1.09539       -2.33520       -0.94671
C         -2.30231       -1.91973       -0.48076
C         -2.40820       -0.54550       -0.08884
C         -3.61203        0.05215        0.13009
C         -3.14669        1.34560        0.15481
N         -3.64778        2.32171        0.29216
N         -1.83143        1.61769        0.09152
C         -1.29275        0.35982       -0.03643
C          0.15619        0.09271       -0.01935
C          1.05422        1.21766       -0.12412
N          0.93311        2.30590       -0.30980
H          3.22242       -2.32962        0.28789
H          4.11641       -0.96843        0.42836
H          0.52543       -3.48332        0.78159
H         -1.47592       -3.35931       -1.08762
H         -3.17242       -2.57249       -0.43746
H         -4.48212       -0.21907       -0.46550
H         -4.65774        2.45377        0.34511
H         -3.23507        3.22836        0.51146
H          1.84052        2.65616       -0.61868
H          0.39883        3.12887       -0.03833
