27
Coordinates from ORCA-job ./opt_b97-3c_parallel
N         -4.68227        0.68455       -0.70544
C         -3.58332        0.45256       -0.49659
C         -2.19564        0.19908       -0.21900
C         -1.76006       -1.11252        0.19196
N         -2.29583       -2.06138        0.38200
C         -0.34326       -0.98658        0.38056
C          0.49409       -1.89603        0.95061
C          0.99398       -2.53736       -0.13389
C          2.17718       -2.10886       -0.82102
N          2.90573       -1.04771       -0.41987
C          2.58215        0.13231        0.16103
N          3.54886        1.07544        0.36942
C          2.85512        2.25137        0.58370
C          1.49283        2.17542        0.45008
C          1.33010        0.83793        0.21832
C          0.05555        0.29027        0.10201
C         -1.11052        1.06127       -0.24469
N         -1.26082        2.12182       -0.52982
H         -3.25313       -1.71492        0.43412
H         -2.35976       -3.07756        0.35212
H          0.19746       -2.44985        1.83961
H          0.54606       -3.47209       -0.46242
H          2.36442       -3.00023       -1.43967
H          3.45865        3.15423        0.76524
H          0.84991        2.70522        1.15050
H         -0.92413        2.91143       -1.07890
H         -2.24952        2.30517       -0.35666
