31
Coordinates from ORCA-job ./opt_b97-3c_parallel
N          4.66018       -2.02421        0.41560
C          3.74745       -1.35528        0.25368
C          2.60091       -0.49813        0.08854
C          2.55385        0.78579       -0.41850
N          3.45875        1.31052       -0.78441
C          1.25693        1.22498       -0.33937
C          0.91718        2.52619       -0.89029
C         -0.23571        3.17804       -0.54227
C         -0.77671        2.79677        0.71698
N         -2.02900        2.39412        0.58183
C         -2.03043        1.04303        0.27157
C         -3.24945        0.31417        0.20118
C         -3.12263       -1.04464        0.02507
N         -4.36593       -1.55536       -0.08667
C         -1.74390       -1.11419        0.02963
C         -1.64995       -2.52293       -0.23009
N         -1.24887       -3.33552       -0.92807
C         -1.02331        0.11816        0.18330
C          0.44428        0.20564        0.13456
C          1.24340       -0.88208        0.43907
N          1.08117       -1.88144        0.88611
H          3.49633        2.32397       -0.69751
H          4.41404        0.96782       -0.69659
H          1.61221        2.98822       -1.58456
H         -0.60252        4.05454       -1.06805
H         -1.58618        3.52451        0.88112
H         -4.19362        0.83717        0.33684
H         -4.49818       -2.47522       -0.50345
H         -5.13998       -0.96363       -0.38230
H          0.19693       -2.34095        1.09222
H          1.80416       -2.59623        0.94713
