27
Coordinates from ORCA-job ./opt_b97-3c_parallel
N          4.89155        0.24337       -0.03161
C          3.74854        0.23906       -0.02761
C          2.30510        0.28217       -0.02247
C          1.92570       -1.05427       -0.01461
C          0.63629       -1.68990       -0.00801
C          0.67250       -3.11444       -0.00234
C         -0.58375       -3.60029        0.00401
C         -1.40032       -2.55894        0.00273
C         -0.70496       -1.36778       -0.00423
C         -1.37585       -0.09400       -0.00493
N         -2.75539       -0.13722        0.00280
C         -3.25839        1.14506        0.00104
N         -4.28226        1.55120        0.00589
N         -2.11758        1.75621       -0.00829
C         -0.94901        1.20469       -0.01215
C          0.27071        1.95349       -0.02251
C          1.59901        1.55110       -0.02678
N          2.18226        2.49746       -0.03439
H          2.72177       -1.80215       -0.01370
H          1.57354       -3.72138       -0.00279
H         -0.87053       -4.64996        0.00873
H         -2.48333       -2.66225        0.00642
H         -4.61114        2.51596        0.00996
H         -5.11410        0.96250        0.01749
H          0.04674        3.02573       -0.02685
H          3.19705        2.39141       -0.03751
H          2.00920        3.50156       -0.03784
