30
Coordinates from ORCA-job ./opt_b97-3c_parallel
N          5.31832       -0.40218       -0.07801
C          4.21961       -0.70284       -0.01072
C          2.83327       -1.03209        0.09637
C          2.39300       -2.31707        0.53437
C          1.04597       -2.54978        0.52351
C          0.63930       -1.28046        0.20961
C         -0.76537       -0.92637        0.04711
C         -1.73486       -1.86298       -0.12144
C         -2.58542       -0.79213       -0.24933
C         -3.83641       -1.42226       -0.56846
N         -4.83318       -1.90400       -0.85012
C         -2.59431        0.56774       -0.05261
N         -3.57112        1.46163        0.18246
C         -1.25697        0.41943        0.17014
C         -0.47870        1.31967        1.00230
N         -0.77889        2.26643        1.49431
N          0.08265        2.36184        0.35457
C          1.01439        1.96177       -0.59824
N          1.55338        2.66710       -1.25138
N          1.52731        0.78522       -0.76289
C          1.67944       -0.35973       -0.17767
H          3.12051       -3.07927        0.79895
H          0.56727       -3.12456        1.31318
H         -1.64039       -2.62431       -0.89585
H         -4.52985        1.25695       -0.10043
H         -3.41455        2.46110        0.07013
H         -1.64412        1.81240        1.78828
H         -0.71906        3.13031        2.03380
H          1.17886        3.61537       -1.22528
H          2.24411        2.65351       -2.00124
