30
Coordinates from ORCA-job ./opt_b97-3c_parallel
N          4.75158        1.43025       -0.33033
C          3.76439        0.85964       -0.25297
C          2.51274        0.17341       -0.12620
C          2.45533       -1.22996        0.09383
N          3.19863       -2.04124        0.20650
C          1.18359       -1.71093        0.20576
C          0.39485       -0.59624        0.03337
C         -1.06067       -0.77107       -0.04367
C         -1.63714       -2.02825       -0.11457
N         -1.44175       -3.11528       -0.17481
C         -3.00068       -1.87038       -0.14098
C         -3.32313       -0.58591       -0.09868
C         -2.17665        0.13897       -0.04452
C         -2.07959        1.56468        0.10756
N         -3.01081        2.16616        0.22555
N         -1.44929        2.46170        0.19625
C         -0.38299        2.38144       -0.06529
C          0.91472        1.87725       -0.31751
C          1.19295        0.53735       -0.13203
H          3.95149       -1.45659        0.56599
H          3.17219       -2.87651        0.78822
H          0.92945       -2.43735        0.97863
H         -1.93650       -3.82194       -0.71556
H         -0.64129       -2.82630       -0.73433
H         -3.74331       -2.66900       -0.17948
H         -4.33542       -0.18913       -0.09931
H         -3.08035        1.60099        1.06997
H         -3.25242        3.11859        0.49347
H         -0.29783        3.46340       -0.25132
H          1.68663        2.60543       -0.54928
