23
Coordinates from ORCA-job ./opt_b97-3c_parallel
N          3.77447       -0.48736       -0.02225
C          2.72301       -0.13951       -0.04343
N          2.03752        0.96900       -0.01293
C          1.12937        1.90243        0.00742
N          1.30555        2.99175        0.11421
C          0.43714        0.63394       -0.03426
C         -1.06402        0.45290       -0.04471
N         -1.67011        1.62846       -0.11092
C         -2.97928        1.36547       -0.14462
N         -3.23837        0.02736       -0.08793
C         -1.99738       -0.55968       -0.01605
N         -2.40882       -1.87641        0.07784
C         -1.34762       -2.75258        0.20984
N         -0.05895       -2.61343        0.25156
C          0.87860       -1.82035       -0.15353
C          1.31521       -0.44814       -0.06450
H          4.07262       -1.45065        0.14802
H          4.64831        0.02304       -0.17337
H          2.09283        3.58336        0.39204
H          0.55056        3.65338       -0.08008
H         -3.97663        1.83362       -0.20022
H         -1.74210       -3.77896        0.29610
H          1.24802       -2.56900       -0.87203
