33
Coordinates from ORCA-job ./opt_b97-3c_parallel
N          3.77340        1.16126       -1.84284
C          2.73858        0.81356       -1.49973
C          2.03204        0.97843       -0.65090
C          2.33425        0.39389        0.55443
N          2.87280        0.49708        1.52027
N          2.26216       -0.92630        0.94258
C          1.53826       -1.77734        0.11682
C          1.86855       -3.15855        0.07891
C          0.88157       -3.80331       -0.58109
C         -0.05336       -2.91520       -0.88903
C          0.27932       -1.65350       -0.45747
C         -0.63061       -0.52580       -0.26973
C         -2.04619       -0.76917       -0.16333
N         -2.66457       -1.68631       -0.15556
C         -2.64055        0.53689        0.05055
C         -4.05190        0.75974        0.24639
N         -4.71825        0.89002        1.16521
C         -1.65394        1.51081        0.03495
N         -1.88549        2.58900        0.14954
C         -0.40356        0.82962       -0.16945
C          0.82740        1.57258       -0.37448
N          0.98122        2.67666       -0.37273
H          3.11004        0.21412        2.47110
H          3.15131        1.47530        1.43931
H          2.73178       -3.59930        0.56783
H          0.87187       -4.85902       -0.84375
H         -0.94105       -3.15883       -1.46873
H         -2.48006       -2.66918        0.03738
H         -3.60804       -1.50049        0.18361
H         -2.87771        2.75769        0.31725
H         -1.43701        3.50354        0.16722
H          1.56475        3.34394       -0.87771
H          0.04495        2.77309       -0.76650
