29
Coordinates from ORCA-job ./opt_b97-3c_parallel
N         -4.32136       -0.55849       -0.28814
C         -3.22848       -0.43322       -0.20031
C         -2.32926        0.67194       -0.23783
C         -1.02559        0.12192       -0.07376
C          0.08186        1.06542        0.03331
C         -0.14515        2.46683        0.20370
N         -0.68554        3.41754        0.33211
N          0.97242        2.40126        0.20150
C          2.07841        2.21398        0.12550
C          1.48738        0.92585       -0.01707
C          2.26185       -0.22625       -0.34956
N          3.33166       -0.42279       -0.53102
N          1.69683       -1.35950       -0.56818
C          1.10452       -2.21843        0.18491
N          1.72288       -3.09424        0.44388
C         -0.31109       -2.26566        0.38956
C         -1.20132       -1.24615        0.07891
N         -2.50088       -1.59065        0.02732
H         -5.00725        0.17673       -0.46021
H         -4.80395       -1.44125       -0.45507
H         -2.60516        1.71208       -0.37661
H         -0.84843        3.20339        1.31342
H         -0.05623        4.21905        0.31253
H          3.12908        2.53814        0.07686
H          3.86821       -1.19479       -0.92308
H          3.31724        0.31027       -1.23765
H          1.56097       -3.84259        1.11555
H          2.71152       -2.85505        0.50879
H         -0.70283       -3.22034        0.73543
