33
Coordinates from ORCA-job ./opt_b97-3c_parallel
N         -5.11029       -2.10586       -0.33000
C         -4.07677       -1.62820       -0.23639
C         -2.76321       -1.05964       -0.14125
C         -1.68458       -1.92863        0.20112
C         -0.48585       -1.15194        0.19788
C          0.74109       -1.75817        0.68489
N          0.72954       -2.67623        1.30513
C          1.99612       -1.17455        0.27880
C          3.27230       -1.62097        0.76864
N          4.30294       -1.97453        1.11024
C          1.90263       -0.53520       -1.00587
N          2.66283       -0.27096       -1.77065
N          2.15464        0.81315       -0.93203
C          1.33514        1.59011       -0.11225
C          1.73407        2.88339        0.03192
C          0.44681        3.23196        0.34436
N          0.34924        4.29292        0.64606
C         -0.72793        2.52741        0.35363
C         -0.07432        1.36496        0.06560
C         -0.80278        0.17235       -0.05428
C         -2.23570        0.21647       -0.27286
N         -3.00599        0.97811       -0.50712
H         -1.77064       -2.99049        0.41452
H         -0.09172       -2.80211        1.89695
H          1.47538       -3.21755        1.74301
H          3.05996        0.10610       -2.63153
H          2.98242       -1.23894       -1.72387
H          2.28496        3.40019       -0.75393
H         -0.52149        4.68048        1.00999
H          1.03275        5.04804        0.69423
H         -1.41461        2.58478        1.19854
H         -3.98977        0.71386       -0.56634
H         -2.98116        1.99396       -0.58049
