29
Coordinates from ORCA-job ./opt_b97-3c_parallel
N         -4.11623       -1.76697       -0.75396
C         -3.10037       -1.29809       -0.52003
C         -1.81193       -0.75106       -0.19274
C         -0.79728       -1.52171        0.47198
N         -0.91318       -2.60035        0.70265
N          0.12436       -1.97972       -0.38659
C          1.22612       -1.28673       -0.72686
N          1.61282       -2.13958       -1.31216
C          1.63642       -0.16445        0.08448
C          3.01798        0.13461        0.29811
N          3.92858       -0.42304        0.01988
C          3.08466        1.34079        0.93154
C          1.86624        1.84748        1.08273
C          0.93497        0.99057        0.57354
C         -0.38974        1.38747        0.14120
C         -0.74237        2.76601        0.06009
C         -2.06121        2.82071       -0.49261
N         -2.53569        1.53565       -0.69696
C         -1.53885        0.66032       -0.31029
H         -1.71081       -2.43012        1.31510
H         -0.87549       -3.60925        0.56157
H          1.62608       -2.65938       -2.18915
H          2.57063       -1.82120       -1.15385
H          4.32797       -0.86947        0.84613
H          4.59796        0.29152       -0.26703
H          3.99846        1.82190        1.27932
H          1.64938        2.79060        1.58175
H         -0.11916        3.62147        0.30022
H         -2.73479        3.64814       -0.76392
