31
Coordinates from ORCA-job ./opt_b97-3c_parallel
N          5.70382       -0.11664        0.19384
C          4.57116       -0.04041        0.06076
C          3.14495        0.07521       -0.07105
C          2.65852        1.30333       -0.39854
C          1.32295        1.00872       -0.37605
C          0.35810        1.99543       -0.66596
N         -0.65627        2.40116       -0.79692
C         -1.53740        1.96698       -0.29580
N         -2.00862        2.98349       -0.27380
C         -2.22629        0.79355        0.18171
C         -3.57917        0.90988        0.66611
N         -4.64107        1.00184        1.07989
C         -1.64465       -0.53777        0.01636
C         -2.47522       -1.61427        0.13612
C         -1.54516       -2.60550        0.03135
N         -1.88327       -3.65601       -0.00456
C         -0.21798       -2.33670       -0.13695
C         -0.26000       -0.96871       -0.11469
C          0.98408       -0.30627       -0.13084
C          2.17413       -0.96818        0.09538
N          2.58024       -1.96349        0.36904
H          3.04517        2.21008        0.06247
H          0.74270        3.00095       -0.90306
H         -1.74569        3.96365       -0.36122
H         -2.55023        2.90573        0.58460
H         -3.40774       -1.66353       -0.42474
H         -1.28045       -4.45678       -0.18264
H         -2.78595       -3.86913       -0.42574
H          0.35583       -2.86094       -0.90190
H          1.82454       -2.10501        1.03730
H          3.45015       -1.99582        0.89876
