28
Coordinates from ORCA-job ./opt_b97-3c_parallel
N         -3.42185        2.23946        1.00158
C         -2.42271        1.81675        0.64596
C         -1.17865        1.23279        0.19097
C         -0.19220        2.17473       -0.12375
N         -0.32604        3.28070       -0.08993
C          1.13103        2.08166       -0.74198
C          2.10122        1.10097       -0.56043
N          3.08374        1.49298       -0.89693
C          2.07040       -0.18555        0.10290
C          3.31909       -0.80520        0.44918
N          2.58129       -1.61764        0.63338
C          1.73562       -2.33747        0.61574
C          1.09580       -1.12102        0.21119
C         -0.23720       -1.17293       -0.11893
N         -0.87900       -2.39275       -0.19128
C         -2.23673       -2.16637       -0.32224
N         -3.09328       -2.85577       -0.39703
N         -2.45286       -0.80385       -0.24985
C         -1.22933       -0.16477       -0.17928
H          0.30349        4.08229       -0.12014
H         -1.25496        3.66121        0.08403
H          1.50594        3.00647       -1.21433
H          3.83742        0.84829       -1.12996
H          3.35301        2.39652       -1.28405
H          4.39529       -0.57512        0.46340
H          1.64214       -3.41119        0.84029
H         -3.02164       -3.86722       -0.50092
H         -4.08904       -2.64106       -0.35135
