23
Coordinates from ORCA-job ./opt_b97-3c_parallel
N         -2.26589       -2.21832        0.29298
C         -1.96408       -0.92337        0.09735
C         -2.93259       -0.01852       -0.05576
C         -2.49382        1.22884       -0.13093
C         -1.15106        1.15886       -0.00360
C         -0.22984        2.24129        0.11758
N          0.62887        2.91925        0.23275
C          1.38943        2.12656        0.17615
C          2.28237        1.01926        0.10179
C          1.82991       -0.28554        0.05705
N          2.70156       -1.29385       -0.00678
C          1.97204       -2.45852       -0.02172
N          0.62864       -2.16685        0.04111
C          0.48198       -0.83497        0.08208
C         -0.78023       -0.21857        0.09095
H         -1.52731       -2.92015        0.29774
H         -3.10611       -2.62745       -0.10910
H         -3.98975       -0.27306       -0.09178
H         -3.09478        2.12679       -0.25252
H         -0.83096        3.16272        0.04396
H          2.13408        2.93903        0.20762
H          3.34655        1.23738        0.08405
H          2.30109       -3.50702       -0.07762
