34
Coordinates from ORCA-job ./opt_b97-3c_parallel
N         -1.27157        4.83937       -0.72400
C         -1.02050        3.76653       -0.41862
C         -0.67881        2.42820       -0.00492
C         -1.10312        2.05563        1.31957
C         -2.08805        1.01621        1.39445
C         -2.21580        0.01882        0.37231
C         -3.36322       -0.81876        0.31973
C         -3.09137       -1.92285       -0.42588
N         -3.93448       -2.91250       -0.75351
C         -1.81404       -1.86088       -0.79313
C         -1.21437       -0.72240       -0.32781
C          0.16771       -0.60535        0.08850
C          1.01906       -1.75752        0.19226
N          0.80985       -2.84342        0.23897
C          2.36584       -1.24320        0.23576
C          3.54884       -2.05464        0.36112
N          4.48757       -2.69371        0.49226
C          2.35569        0.18903        0.04476
N          3.31830        0.73697       -0.01277
C          0.96457        0.57929       -0.03235
C          0.50575        1.83235       -0.43481
N          1.20376        2.39130       -1.09491
H         -1.33934        2.86612        2.00315
H         -2.87276        1.11486        2.13785
H         -4.24513       -0.65649        0.93180
H         -4.94063       -2.75986       -0.71892
H         -3.73371       -3.51530       -1.54921
H         -1.32340       -2.60058       -1.42192
H          1.49017       -3.58756        0.38260
H         -0.11438       -3.26694        0.29332
H          3.06293        1.72220        0.03544
H          4.30613        0.66947        0.22498
H          1.73908        1.83360       -1.75793
H          1.10492        3.32135       -1.50029
