31
Coordinates from ORCA-job ./opt_b97-3c_parallel
N          4.40547       -1.81969       -0.73952
C          3.60585       -1.36456       -0.06211
C          2.45587       -0.50209       -0.01082
C          1.10236       -0.94549        0.19498
N          0.85402       -2.19444        0.41466
C         -0.09338       -3.02023        0.71601
C         -0.62139       -2.89478       -0.53329
C         -1.80592       -2.22594       -0.57517
C         -2.04941       -0.86510       -0.14352
C         -3.30959       -0.32971       -0.20186
N         -4.32233       -0.64601       -0.50965
C         -3.20717        0.94498        0.27559
C         -1.95832        1.26905        0.60145
N         -1.72731        2.36035        1.34873
C         -1.16491        0.19887        0.28168
C          0.29448        0.16486        0.15015
C          1.10444        1.33860       -0.05900
C          0.70915        2.69610       -0.29721
N          0.43822        3.78928       -0.49466
C          2.45800        0.86908       -0.16425
N          3.33817        1.51424       -0.35880
H          0.62432       -3.57750        1.33629
H         -0.42855       -3.67240       -1.27002
H         -2.68332       -2.77780       -0.89809
H         -5.08090       -0.05182       -0.83928
H         -3.95671       -1.13390       -1.32517
H         -4.06480        1.57403        0.51552
H         -2.33254        3.17493        1.26635
H         -0.77647        2.68984        1.50234
H          4.17874        1.18903       -0.83373
H          3.29744        2.52460       -0.48323
