27
Coordinates from ORCA-job ./opt_b97-3c_parallel
N          5.07364        1.69026        0.27145
C          4.08663        1.12391        0.18415
C          2.82940        0.45726        0.07142
C          2.64932       -0.83336       -0.33400
C          1.28155       -0.98360       -0.30861
C          0.70630       -2.15081       -0.93930
C         -0.57434       -2.58705       -0.72425
C         -1.14263       -2.21052        0.53261
N         -1.97589       -2.87533        0.84148
N         -2.21878       -1.44358        0.36400
C         -1.93022       -0.10984        0.07626
C         -2.98850        0.83845        0.02759
C         -2.35764        2.12870       -0.00214
N         -2.64026        3.19955       -0.01704
N         -0.97649        1.95330        0.03948
C         -0.76280        0.62142        0.06767
C          0.64189        0.19475        0.07931
C          1.60941        1.13032        0.32482
H          3.25910       -1.25696       -1.13101
H          1.36847       -2.74408       -1.56578
H         -0.95993       -3.44004       -1.28258
H         -2.87107       -3.27042        1.13966
H         -1.28932       -3.59960        1.06550
H         -4.05450        0.63453        0.07596
H         -2.02657        4.01618        0.02700
H         -3.58335        3.58873       -0.08787
H          1.52838        2.17520        0.61156
