33
Coordinates from ORCA-job ./opt_b97-3c_parallel
N         -5.44918        0.56191        0.50437
C         -4.33208        0.42749        0.30207
C         -2.92456        0.21677        0.05062
C         -2.33955        1.46753        0.19114
C         -1.05208        1.91232        0.00181
C         -0.86468        3.33128       -0.02269
C          0.39219        3.79834       -0.29110
C          1.00929        2.56800       -0.33126
N          2.01570        2.97316       -0.55303
C          0.19821        1.39741       -0.12466
C          0.70021        0.10790       -0.11349
C          2.08904       -0.22516        0.13424
C          3.06122        0.58297        0.81605
N          3.85371        1.18713        1.37796
C          2.48545       -1.54260        0.02672
N          3.71931       -2.09021        0.07710
C          1.23718       -2.04296       -0.24919
C          1.27342       -3.47208       -0.38822
N          1.04324       -4.58417       -0.51825
C          0.14786       -1.11823       -0.30262
C         -1.16538       -1.64733       -0.57228
C         -2.42209       -1.07061       -0.40767
N         -3.15601       -1.88145       -0.60403
H         -3.01555        2.29096        0.42784
H         -1.71148        4.00191        0.08784
H          0.49902        4.56794       -1.06403
H          2.60493        3.79219       -0.69123
H          2.53542        2.17664       -0.91531
H          4.46494       -1.61089        0.57970
H          3.82432       -3.08962        0.24388
H         -1.12897       -2.70290       -0.85096
H         -3.09052       -2.86277       -0.86794
H         -4.14954       -1.66311       -0.54616
