29
Coordinates from ORCA-job ./opt_b97-3c_parallel
N         -2.48320       -2.17158        2.11925
C         -1.59604       -1.64813        1.62427
C         -1.33317       -1.34036        0.59226
C         -0.49689       -1.99789       -0.25539
N         -0.64337       -2.92026       -0.85375
N          0.73869       -2.13039       -0.74956
C          1.77923       -1.31997       -0.47049
N          2.53510       -2.02911       -0.85990
C          1.72043       -0.01004        0.16877
C          2.96095        0.65164        0.43021
N          4.05489        0.52871        0.39684
N          2.14703        1.39484        0.61241
C          1.36768        2.19214        0.68783
C          0.69687        0.97590        0.36172
C         -0.73577        1.00515        0.13232
N         -1.41689        2.18895       -0.02649
C         -2.75535        1.86715       -0.18538
N         -3.47842        2.68286       -0.35478
N         -2.88812        0.48920       -0.04918
C         -1.64810       -0.08122        0.17574
H         -1.57951       -3.16507       -0.52968
H         -0.20865       -3.81101       -1.10058
H          3.40400       -1.49144       -0.82535
H          2.76698       -2.87872       -1.37763
H          4.87929        0.08470        0.80111
H          4.23203        1.53266        0.43935
H          1.68317        3.21903        0.93564
H         -4.47579        2.52154       -0.50099
H         -3.36311        3.69721       -0.35027
