30
Coordinates from ORCA-job ./opt_b97-3c_parallel
N          4.79138       -0.30941        0.26598
C          3.68221       -0.03861        0.21581
C          2.28800        0.28025        0.11858
C          2.08962        1.58215       -0.18622
C          1.81765        2.30386        0.92978
C          0.51670        2.69168        1.12050
C         -0.56867        2.07647        0.39713
C         -1.78925        2.79663        0.26692
C         -2.77505        2.16877       -0.44989
C         -2.16496        0.93610       -0.57375
N         -3.05168        0.45416       -1.02674
C         -0.81215        0.82225       -0.10595
C         -0.10228       -0.45994        0.00031
C         -0.77602       -1.65939       -0.03623
C         -2.09301       -2.21700       -0.13134
N         -3.13169       -2.69247       -0.17749
C          0.29920       -2.58233        0.16858
N          0.42654       -3.68015        0.24073
C          1.53824       -2.03385        0.35333
C          1.24523       -0.70316        0.20910
H          2.53643        2.04210       -1.06528
H          2.62101        2.80098        1.46507
H          0.29560        3.57197        1.71720
H         -1.87979        3.81071        0.64559
H         -3.21844        2.70857       -1.29272
H         -2.43202       -0.20678       -1.49193
H         -4.00334        0.15064       -1.22409
H         -0.54312       -3.99260        0.26055
H          1.00534       -4.51515        0.31018
H          2.20852       -2.36382        1.14863
