30
Coordinates from ORCA-job ./opt_b97-3c_parallel
N         -2.38249       -3.84003        1.09559
C         -1.72624       -2.98051        0.72889
C         -0.88009       -1.90405        0.30600
C          0.31975       -2.56041        0.08358
N          1.44035       -2.34940       -0.63777
C          1.85241       -1.06136       -0.91342
N          2.65813       -1.54385       -1.49932
C          1.81833       -0.12764        0.17931
C          2.98668        0.61178        0.54113
N          4.08240        0.60885        0.41998
N          2.12822        1.25006        0.87486
C          1.23994        1.93128        0.96122
C          0.72915        0.71891        0.41150
C         -0.62096        0.56555       -0.07189
C         -1.49299        1.61004       -0.19096
C         -1.53433        3.04127       -0.10241
N         -1.11866        4.00770       -0.54615
C         -2.71121        0.91902       -0.48115
N         -3.75399        1.22494       -0.68985
C         -2.68720       -0.45157       -0.52127
C         -1.35191       -0.65916       -0.26753
H          0.62055       -3.60697        0.25836
H          3.13533       -0.64834       -1.62010
H          3.13527       -2.19723       -2.11986
H          4.64287       -0.23809        0.48980
H          4.54823        1.30422        1.00387
H          0.93672        2.94389        1.26847
H         -4.71516        0.89905       -0.78391
H         -3.79998        2.24277       -0.64937
H         -3.46142       -1.05920       -0.04832
