23
Coordinates from ORCA-job ./opt_b97-3c_parallel
N         -2.63018       -3.78925        0.68907
C         -2.18432       -2.77950        0.39297
C         -1.66584       -1.50554       -0.00584
C         -0.65082       -1.35168       -0.98880
N          0.59296       -1.52570       -0.46588
C          1.17013       -0.33379       -0.07056
C          2.56041       -0.27625        0.21877
C          3.49723       -1.35273        0.31231
N          4.26870       -2.19094        0.40220
C          2.85945        1.12102        0.29904
N          1.70960        1.86914        0.07742
C          0.72759        0.97145       -0.11401
C         -0.59833        1.57223       -0.28825
C         -0.77202        2.92259       -0.42301
N         -2.05841        3.13780       -0.18154
C         -2.77978        2.03771        0.07650
C         -1.87328        0.95414       -0.02640
C         -2.35685       -0.36609        0.30731
H         -0.31428       -2.38550       -1.16522
H          3.85766        1.54726        0.47837
H         -0.18769        3.83093       -0.63326
H         -3.84528        2.19267        0.30277
H         -3.33921       -0.44705        0.76446
