30
Coordinates from ORCA-job ./opt_b97-3c_parallel
N          4.00935       -2.79174        0.88987
C          3.03623       -2.29372        0.56013
C          1.84129       -1.62026        0.14952
C          0.93654       -2.26249       -0.76335
C         -0.26266       -1.72766       -1.15248
C         -1.11254       -1.42605       -0.03602
C         -2.23033       -2.16127        0.21446
C         -2.95839       -1.00987        0.36802
N         -4.06251       -1.03852        0.43699
C         -2.61174        0.31015        0.48777
C         -1.34521       -0.03343        0.12126
C         -0.29474        0.92166       -0.14432
C         -0.62901        2.24575       -0.28982
N         -1.37512        3.05801       -0.39301
N          0.54828        2.97899       -0.25100
C          1.60429        2.09742       -0.04594
N          2.49069        2.75888        0.01514
C          1.06276        0.76864        0.00766
C          1.94079       -0.25000        0.34108
H          1.26516       -3.21062       -1.18274
H         -0.74135       -2.32117       -1.92745
H         -2.55314       -2.95335       -0.46099
H         -4.83670       -0.56580        0.90245
H         -4.35503       -2.00963        0.32864
H         -2.78771        0.85019        1.41888
H         -1.65723        4.03904       -0.43255
H         -2.23233        2.52612       -0.55793
H          3.34818        2.22603       -0.14100
H          2.80199        3.70747        0.23115
H          2.89830        0.09449        0.72929
