28
Coordinates from ORCA-job ./opt_b97-3c_parallel
N         -4.27210        1.88899        1.43253
C         -3.33496        1.56620        0.86519
C         -2.18547        1.10104        0.14986
C         -1.50515        2.30293        0.05687
N         -0.33094        2.67823       -0.48209
C          0.38087        1.67117       -1.08989
C          1.18899        0.86144       -0.22113
C          2.53802        0.97171       -0.07962
N          3.29569        1.73544       -0.32596
C          2.83890       -0.32472        0.45742
C          4.06820       -0.94492        0.85607
N          4.95693       -1.55446        0.47493
C          1.83966       -1.26184        0.59571
C          0.81667       -0.45457        0.17152
C         -0.56060       -0.85003        0.01743
N         -0.88782       -2.19030       -0.03897
C         -2.21446       -2.33285       -0.41457
N         -2.55608       -3.38089       -0.47370
C         -2.63913       -1.03608       -0.45688
C         -1.70146       -0.13935       -0.18461
H         -1.49771        3.38788        0.25048
H          0.99130        2.53779       -1.38885
H          4.26479        1.42085       -0.28406
H          3.31973        2.75301       -0.27581
H          1.95538       -2.26733        0.19349
H         -2.01639       -4.24644       -0.47482
H         -3.53619       -3.66180       -0.51457
H         -3.69518       -0.78629       -0.55522
