33
Coordinates from ORCA-job ./opt_b97-3c_parallel
N         -5.40442       -1.65786        1.16894
C         -4.43255       -1.15939        0.83441
C         -3.23265       -0.49528        0.42983
C         -1.95623       -1.10534        0.66203
C         -0.95047       -0.21074        0.17351
C          0.46264       -0.58664        0.12462
C          0.89290       -1.95796       -0.00145
C          0.08824       -3.12933       -0.21091
N         -0.56824       -4.04248       -0.41072
C          2.33542       -1.93046       -0.07296
N          2.91399       -2.86754       -0.20443
C          2.77171       -0.61954        0.02456
C          4.18153       -0.34056       -0.01345
N          4.58977        0.09323       -0.98972
C          1.59526        0.19917        0.13719
C          1.71679        1.62044        0.36932
C          2.87574        2.45400        0.54515
N          3.29329        2.68718        1.58194
C          0.53260        2.29959        0.52957
N         -0.04587        2.74615       -0.64425
C         -1.12175        2.04531       -1.05318
N         -1.25927        2.95534       -1.66465
C         -1.61006        0.89997       -0.31102
C         -3.03080        0.71240       -0.21076
N         -3.81658        1.41330       -0.55423
H         -1.80980       -2.05867        1.15741
H          3.91428       -2.84378       -0.40007
H          2.61776       -3.83475       -0.33188
H          0.73948        3.37716        0.64215
H         -1.15839        3.47132       -2.53912
H         -2.22882        2.63130       -1.63911
H         -4.48845        0.68987       -0.81756
H         -4.33746        2.06825        0.03103
