29
Coordinates from ORCA-job ./opt_b97-3c_parallel
N         -3.67096       -2.53504       -0.52505
C         -2.66568       -2.03765       -0.30597
C         -1.39114       -1.42245       -0.09474
C         -0.38054       -2.30773       -0.25102
C          0.24206       -2.48206        0.94337
C          1.50014       -1.95008        1.07401
C          2.03909       -0.96660        0.26323
C          3.39205       -0.77919        0.07982
N          4.31528       -1.31199        0.37349
C          3.56546        0.36715       -0.64146
C          2.40159        0.94500       -0.88310
C          1.40711        0.17858       -0.36322
C          0.07810        0.68387       -0.04747
C         -0.24283        2.02521       -0.06979
C          0.29158        3.34312       -0.23803
N          1.07416        4.03922        0.22199
C         -1.57553        2.27305        0.18804
C         -2.12473        1.02135        0.19855
C         -3.54594        0.87099        0.30068
N         -4.67948        0.78578        0.39715
C         -1.14881       -0.01703        0.09921
H         -0.42057       -3.11481       -0.98299
H         -0.09602       -3.25618        1.62414
H          2.15972       -2.44173        1.78284
H          3.97114       -2.26845        0.34651
H          5.18403       -1.29627       -0.15656
H          4.52545        0.75719       -0.98922
H          2.27136        1.84920       -1.47101
H         -1.88579        3.00235        0.93795
