28
Coordinates from ORCA-job ./opt_b97-3c_parallel
N          5.08267        0.82213       -0.25910
C          4.05458        0.32658       -0.19281
C          2.75656       -0.25805       -0.09088
C          2.56825       -1.60907        0.32819
C          1.28669       -2.08775        0.37591
C          0.65598       -0.93204       -0.01021
C         -0.78526       -0.76405       -0.13821
C         -1.54710       -1.90144       -0.10216
N         -1.71718       -2.99396       -0.02961
N         -2.84524       -1.50657       -0.31404
C         -2.83697       -0.12877       -0.47194
N         -3.90165        0.13913       -0.62971
C         -1.55827        0.35559       -0.31220
C         -1.46037        1.57209        0.31149
N         -2.05752        2.25567        0.94501
N         -0.54948        2.55159        0.39412
C          0.64459        2.38578       -0.19794
N          1.10727        1.33623       -0.79584
C          1.49443        0.19407       -0.33082
H          3.43149       -2.21306        0.59435
H          0.95798       -2.63780        1.25523
H         -2.33187       -3.80602       -0.11221
H         -0.76917       -3.36983       -0.09386
H         -4.89294       -0.05792       -0.77758
H         -3.85265        1.14447       -0.44666
H         -1.76738        2.10535        1.91138
H         -2.25541        3.25528        0.86782
H          1.49268        3.08575       -0.25729
