34
Coordinates from ORCA-job ./opt_b97-3c_parallel
N          1.70637        4.11331       -1.76306
C          1.39404        3.14872       -1.23604
C          1.04758        1.92263       -0.57127
C          0.23415        2.05158        0.60778
C         -0.90777        1.20134        0.80673
C         -1.85715        1.60255        1.79936
N         -2.58979        1.90291        2.62291
C         -1.22111        0.25795       -0.24386
C         -2.57148       -0.07868       -0.56308
C         -3.74695        0.73784       -0.50666
N         -4.66594        1.41436       -0.45446
C         -2.50594       -1.45156       -0.95018
N         -3.26093       -2.18888       -1.27540
C         -1.27913       -2.04735       -0.82412
C         -0.53549       -0.99245       -0.35946
C          0.73905       -1.16104        0.28666
C          1.19275       -2.45691        0.68221
N          1.07997       -3.53270        0.89393
N          2.52123       -2.35453        0.85230
C          3.00517       -1.14073        0.53699
N          4.08993       -1.30775        0.66855
C          1.88554       -0.32011        0.13814
C          1.98169        0.88300       -0.56276
N          2.97315        0.94807       -1.06988
H          0.17139        3.02642        1.08690
H         -3.51267       -3.03495       -1.78480
H         -4.09880       -1.60749       -1.25917
H         -0.88146       -2.69671       -1.60467
H          1.33624       -4.41900        1.32708
H          0.07764       -3.58093        0.71376
H          4.24877       -0.37917        0.27366
H          4.98662       -1.62076        1.03927
H          3.02799        0.54447       -2.00631
H          3.21032        1.93539       -1.18596
