28
Coordinates from ORCA-job ./opt_b97-3c_parallel
N         -5.07756       -0.43379        0.36542
C         -3.94400       -0.30889        0.28634
C         -2.51992       -0.10786        0.17505
C         -1.97248        1.22464        0.24507
N         -2.53055        2.17448        0.37861
C         -0.55278        1.06521        0.08381
C          0.18716        2.31027        0.01371
N          1.49571        2.47556       -0.23925
C          2.38039        1.48613       -0.22587
N          2.98416        2.35072       -0.57388
C          3.05338        0.31360       -0.13198
C          2.38749       -0.83482       -0.10786
N          3.22755       -1.84852       -0.07019
C          2.28792       -2.78890       -0.14540
N          0.99243       -2.34625       -0.20141
C          1.02495       -1.00879       -0.16042
C         -0.23959       -0.27682       -0.04134
C         -1.48315       -1.01330       -0.00910
N         -1.83324       -2.06257       -0.08033
H         -2.76155        2.62289        1.26464
H         -3.42089        1.94620       -0.06360
H         -0.15678        3.35575        0.04652
H          3.55391        2.02271       -1.35489
H          3.31515        3.29588       -0.37452
H          4.14609        0.31697       -0.07650
H          2.39163       -3.88539       -0.15961
H         -2.74514       -2.50355       -0.19778
H         -1.13594       -2.78242       -0.26659
