28
Coordinates from ORCA-job ./opt_b97-3c_parallel
N         -3.70312       -3.18560        0.29071
C         -2.80603       -2.48072        0.37593
C         -2.17738       -1.61578        0.08916
C         -0.89804       -1.99529        0.38223
N          0.21503       -1.35547        0.21140
C          1.09961       -0.42241        0.04662
C          2.45074       -0.56521       -0.08592
C          3.19807       -1.78623       -0.10553
N          4.14405       -2.38904       -0.32866
C          2.90900        0.78410       -0.18008
N          3.93370        1.18651       -0.28568
C          1.99241        1.79789       -0.11552
C          0.87758        1.00581        0.01010
C         -0.45948        1.57002        0.10908
C         -0.59720        2.99475        0.15437
N         -1.69534        2.96970        0.22006
C         -2.12020        2.05899        0.66938
C         -1.68428        0.81000        0.10643
C         -2.41018       -0.34463       -0.36068
N         -2.83731       -0.03053       -1.33177
H         -0.33611       -2.31867        1.27244
H          4.48238        0.34629       -0.46692
H          4.50521        1.97792       -0.57550
H          2.00493        2.62038       -0.83061
H         -0.05938        3.95484        0.16315
H         -3.18116        2.28065        0.47469
H         -3.28134        0.83471       -1.63317
H         -3.51513       -0.77792       -1.47208
