29
Coordinates from ORCA-job ./opt_b97-3c_parallel
N         -5.57436        0.33326        0.23002
C         -4.44238        0.28874        0.07530
C         -3.01391        0.24364       -0.07733
C         -2.38653        1.44515       -0.21111
C         -1.09870        0.99086       -0.29495
C         -0.02435        1.88052       -0.51370
N          1.02027        2.19552       -0.66105
C          1.86656        1.61573       -0.25751
N          2.46141        2.56281       -0.20567
C          2.43069        0.33825        0.10115
C          3.80137        0.25431        0.53662
N          4.87689        0.18349        0.91714
C          1.67620       -0.89241       -0.11940
C          2.28439       -2.11480       -0.07580
C          1.36917       -3.04463       -0.27230
C          0.16383       -2.52385       -0.41662
C          0.24986       -1.16063       -0.30593
C         -0.91847       -0.37521       -0.23913
C         -2.17506       -0.92192       -0.09148
N         -2.71593       -1.87974        0.04172
H         -2.64088        2.28693        0.42910
H         -0.30545        2.94270       -0.59504
H          2.97759        2.42953        0.66149
H          2.43509        3.56542       -0.38077
H          3.34807       -2.31078        0.04136
H          1.58487       -4.10894       -0.33273
H         -0.71244       -3.11718       -0.65700
H         -1.97257       -2.13871        0.68705
H         -3.59004       -1.92571        0.56262
