23
Coordinates from ORCA-job ./opt_b97-3c_parallel
N          2.40025        1.87102       -0.68202
C          1.69081        1.08538       -0.37310
N          0.78789        2.08009       -0.36112
C         -0.37464        2.00140        0.28374
N         -1.14211        1.33038        1.06690
C         -1.70303        0.39491        0.36974
C         -3.05822        0.50302        0.29209
C         -3.13737       -0.78164       -0.15082
N         -2.09630       -1.13779       -0.18207
C         -1.04940       -0.81053       -0.06014
C          0.30893       -1.03414        0.08128
C          0.75954       -2.38147        0.13943
C          2.10998       -2.41420        0.18408
C          2.53588       -1.15949        0.13118
C          1.48256       -0.28709        0.05053
H          2.43740        1.03719       -1.26434
H          2.46778        2.67194       -1.30669
H         -0.71132        3.01904        0.03550
H         -3.52359        1.31137       -0.26745
H         -3.99782       -1.36677       -0.50885
H          0.10915       -3.25074        0.13043
H          2.73124       -3.30389        0.25548
H          3.58219       -0.86290        0.15345
