30
Coordinates from ORCA-job ./opt_b97-3c_parallel
N         -4.92764        3.14866        0.17651
C         -4.03460        2.43441        0.17840
C         -2.89926        1.56885        0.16291
C         -1.61171        1.98219        0.37954
C         -0.90035        0.81167        0.23828
C          0.54803        0.80027        0.21127
C          1.35441        1.90926        0.59792
C          2.70422        1.73179        0.43847
N          3.50067        2.69584        0.92774
C          2.71332        0.50090       -0.17558
C          3.94145       -0.05890       -0.65131
N          4.93501       -0.50393       -0.99998
C          1.44420       -0.14126       -0.35186
N          1.19029       -1.21708       -1.02535
C          0.70665       -2.29768       -0.50548
C         -0.26430       -2.31645        0.45429
C          0.24951       -2.84168        1.29074
N          0.23427       -3.61239        2.13670
C         -1.44032       -1.69636        0.10852
N         -2.23549       -2.46123       -0.02976
C         -1.74110       -0.27457        0.06514
C         -3.02627        0.16796       -0.02646
H         -1.25596        2.90813       -0.06776
H          0.90698        2.80784        1.01214
H          3.16452        3.65451        0.99678
H          4.48517        2.72465        0.66799
H          0.70099       -2.63732       -1.55227
H         -2.17157       -3.47315        0.06855
H         -2.62130       -2.10761        0.84420
H         -3.95562       -0.38070       -0.14642
