26
Coordinates from ORCA-job ./opt_b97-3c_parallel
N         -2.99531       -1.27841       -0.08178
C         -1.93445       -0.96733       -0.10461
C         -1.15408       -1.98945       -0.52601
C         -0.47037       -2.69199        0.40787
C          0.85944       -2.41556        0.60418
C          1.52666       -1.20805        0.16597
C          2.94563       -1.23073        0.16767
C          3.35029        0.08810       -0.21130
N          2.22911        0.89106       -0.37817
C          1.17216        0.08951       -0.15167
C         -0.10555        0.79335       -0.07636
C         -0.13159        2.16968       -0.06605
N          0.27360        3.19725       -0.09199
N         -1.44196        2.59408        0.11192
C         -2.25276        1.46936        0.19287
C         -1.38989        0.34246        0.05197
H         -3.18743       -2.25160        0.15651
H         -3.80247       -0.95308       -0.61187
H         -1.16829       -2.32067       -1.56334
H         -0.88435       -3.62498        0.77976
H          1.48774       -3.17590        1.05943
H          3.59336       -2.07139        0.39729
H          4.43446        0.26716       -0.27960
H          0.50486        4.18962       -0.08687
H          1.15457        2.69838       -0.23688
H         -3.34714        1.53706        0.28950
