29
Coordinates from ORCA-job ./opt_b97-3c_parallel
N         -5.31630       -1.59183       -0.44449
C         -4.23441       -1.24826       -0.31004
C         -2.86398       -0.85805       -0.13031
C         -1.92297       -1.90581        0.15148
C         -0.55782       -1.96981        0.26735
C          0.46793       -0.97400        0.13426
C          1.81993       -1.44056        0.08719
C          2.34239       -2.77762        0.12081
N          2.55279       -3.89675        0.22440
C          2.82016       -0.50742       -0.04302
N          4.16655       -0.61547       -0.01060
C          1.98741        0.59241       -0.07982
C          2.68532        1.78544       -0.47036
N          3.27672        2.71680       -0.77065
C          0.55865        0.37816        0.06223
C         -0.42622        1.44410        0.11558
C         -0.02340        2.80261        0.34473
C         -1.10867        3.60043        0.31667
C         -2.15758        2.83006        0.10765
C         -1.80669        1.50789        0.02086
C         -2.83727        0.52691       -0.18642
H         -2.41052       -2.87519        0.21906
H         -0.20095       -2.98434        0.40723
H          4.60988       -1.51048       -0.21379
H          4.74906        0.12111       -0.40546
H          0.95922        3.13750        0.64035
H         -1.11515        4.68224        0.42528
H         -3.17596        3.20544        0.03145
H         -3.79667        1.02262       -0.33903
