25
Coordinates from ORCA-job ./opt_b97-3c_parallel
N          4.32204       -1.27018        0.68776
C          3.38052       -0.65994        0.47014
C          2.20746        0.10121        0.15746
C          2.05870        1.44926       -0.07891
N          2.77059        2.29453       -0.08413
C          0.76850        1.84350       -0.33775
C          0.04902        0.68540       -0.22550
C         -1.38946        0.73418       -0.01971
C         -2.06169        1.96992        0.21275
N         -2.90018        1.23040        0.32486
C         -3.63218        0.37796        0.34256
C         -2.39612       -0.25018        0.02387
C         -2.32836       -1.60686       -0.41678
N         -1.29422       -2.05745       -1.03414
C         -0.51651       -2.51937       -0.11866
C          0.64655       -1.83934        0.35950
C          0.89943       -0.45056        0.02868
H          3.68402        1.85185       -0.17048
H          2.93162        3.29886       -0.03762
H          0.53875        2.55430       -1.13072
H         -1.99951        3.06263        0.32423
H         -4.69046        0.08725        0.42000
H         -3.23326       -2.23294       -0.42332
H         -0.46862       -3.58084        0.16768
H          1.41556       -2.43822        0.83657
