33
Coordinates from ORCA-job ./opt_b97-3c_parallel
N         -0.81245       -2.98342        2.09488
C         -0.25617       -2.28256        1.38621
C          0.39039       -1.39083        0.45009
C         -0.37787       -0.96206       -0.69465
N         -1.58807       -1.34171       -0.97210
C         -2.87432       -1.48295       -1.01109
N         -3.73585       -2.12458       -1.26095
C         -2.55824       -0.17636       -0.79607
C         -1.26705        0.03947       -0.41567
C         -0.74672        1.19470        0.27592
C         -1.61527        2.21306        0.76758
N         -2.70042        2.39500        0.86996
C         -0.83070        3.25887        1.12861
C          0.43183        2.94468        0.86509
C          0.55224        1.67154        0.35482
C          1.59766        1.25317       -0.57922
N          2.16226        2.08980       -1.03843
C          2.23524       -0.06984       -0.50214
C          3.53760       -0.29002       -1.09101
N          4.54991       -0.48073       -1.58625
C          1.74150       -1.09144        0.31488
N          2.37291       -1.85936        0.81918
H         -4.62875       -1.83740       -1.66136
H         -3.81306       -3.12591       -1.08416
H         -3.14740        0.62390       -1.24738
H         -3.60620        1.93189        0.84437
H         -2.87244        3.33005        1.23855
H         -1.16325        4.20813        1.54942
H          1.27138        3.60729        1.06417
H          1.96261        3.08866       -1.01818
H          3.17423        1.99882       -1.12158
H          2.34232       -2.73445        1.34092
H          3.35952       -1.60552        0.75569
