28
Coordinates from ORCA-job ./opt_b97-3c_parallel
N         -1.94581        1.70584        1.55385
C         -1.16441        1.50595        0.48041
C         -0.40611        2.45402       -0.05481
C          0.44365        2.15458       -1.07461
N          1.63987        1.55628       -1.01809
C          2.03934        0.75395       -0.00848
N          3.32561        0.55887        0.11218
C          3.34304       -0.62285        0.65783
C          2.19450       -1.22406        0.90989
C          1.26042       -0.34820        0.49937
C         -0.07790       -0.66773        0.04850
C         -0.55240       -1.93365       -0.18270
N         -0.13649       -2.95646       -0.20851
C         -1.87790       -1.77837       -0.48400
C         -2.26060       -0.50570       -0.41014
N         -3.50847       -0.08666       -0.67056
C         -1.17880        0.23780       -0.03730
H         -2.66545        1.02598        1.79737
H         -2.31535        2.63344        1.75880
H         -0.40656        3.45938        0.36294
H          0.31599        2.76919       -1.97881
H          4.28884       -1.12491        0.91577
H          2.04182       -2.19544        1.37307
H          0.78031       -3.35083       -0.41105
H         -0.81282       -3.68026       -0.45174
H         -2.54726       -2.59263       -0.76215
H         -4.28711       -0.74302       -0.62793
H         -3.83699        0.80692       -0.30861
