31
Coordinates from ORCA-job ./opt_b97-3c_parallel
N         -4.75838        1.75695       -0.39497
C         -3.78875        1.17928       -0.21765
C         -2.55396        0.47541       -0.03076
C         -1.25935        0.93195       -0.07915
C         -0.99051        2.25866       -0.57194
C          0.15395        2.96809       -0.31226
C          0.78122        2.76810        0.95873
C          1.89243        1.96884        0.93298
C          2.04271        0.80531        0.21383
C          3.24178        0.19296       -0.02924
N          4.32979        0.36813        0.08247
N          3.13847       -1.04443       -0.54043
C          1.77191       -1.30751       -0.61012
N          2.01720       -2.32094       -0.99066
C          1.03810       -0.15107       -0.14752
C         -0.33835       -0.15966        0.07558
C         -1.10720       -1.29291        0.27659
C         -0.70055       -2.64764        0.51103
N         -0.31112       -3.70918        0.67214
C         -2.50508       -0.93362        0.25061
N         -3.36534       -1.61925        0.37646
H         -1.79889        2.79694       -1.06041
H          0.11450        4.00835       -0.62533
H          0.89985        3.68234        1.53448
H          2.75412        2.33877        1.48180
H          5.26269       -0.04440        0.02336
H          4.48723        1.35441        0.29565
H          2.47259       -2.89188       -1.70512
H          1.28794       -2.92537       -0.60213
H         -4.25553       -1.12630        0.30980
H         -3.57808       -2.54918        0.73499
