34
Coordinates from ORCA-job ./opt_b97-3c_parallel
N         -2.72519       -4.24840       -0.95904
C         -2.31834       -3.26144       -0.55053
C         -1.84192       -2.00152       -0.03896
C         -1.12639       -2.00981        1.20084
N          0.08575       -2.63422        1.11276
C          1.03445       -1.81434        0.52886
C          2.37600       -2.25079        0.36583
C          3.25959       -1.29664       -0.07877
N          4.44989       -1.91403       -0.21947
C          2.37360       -0.23743       -0.12276
C          3.31648        0.70841       -0.64989
N          3.43563        1.45256       -1.50957
C          1.00303       -0.47628        0.24475
C         -0.00620        0.49885        0.21600
C          0.32473        1.89394        0.40021
N          1.23673        2.45425        0.68528
C         -0.90517        2.63351        0.19650
C         -0.99060        4.07036        0.30516
N         -1.05082        5.20557        0.42532
C         -1.92599        1.75625       -0.11126
N         -2.94279        2.14652       -0.32179
C         -1.37082        0.43131       -0.03806
C         -2.18165       -0.71919       -0.44002
N         -3.08949       -0.65210       -1.07481
H         -0.96072       -3.01517        1.61840
H          2.64237       -3.27101        0.63395
H          5.17574       -1.49320       -0.79716
H          4.49454       -2.92361       -0.34468
H          2.17695        2.32715        0.31689
H          1.12470        3.45311        0.85064
H         -3.46713        2.95173        0.01556
H         -3.55561        1.33643       -0.23994
H         -2.80966        0.10170       -1.70098
H         -3.46905       -1.39527       -1.65952
