29
Coordinates from ORCA-job ./opt_b97-3c_parallel
N         -1.91305        4.85392        0.00185
C         -1.60983        3.75256        0.00116
C         -1.27141        2.35725        0.00012
C          0.10876        2.25770        0.00116
C          0.98638        1.19917        0.00065
C          2.36094        1.60033        0.00191
C          3.18932        0.44458        0.00143
C          4.61212        0.65232        0.00249
N          5.74611        0.78310        0.00261
C          2.33089       -0.64061        0.00004
N          2.93208       -1.57442       -0.00039
C          0.95268       -0.17195       -0.00045
C         -0.06813       -1.11379       -0.00176
N          0.25210       -2.46019       -0.00204
C         -0.89062       -3.23118       -0.00302
N         -0.95505       -4.33128       -0.00323
N         -1.95505       -2.35697       -0.00389
C         -1.49439       -1.05206       -0.00311
C         -2.50189       -0.00551       -0.00376
C         -3.87668       -0.42542       -0.00592
N         -4.95655       -0.79808       -0.00791
C         -2.37140        1.43140       -0.00217
H          0.63064        3.21678        0.00279
H          2.73035        2.62252        0.00280
H          3.95261       -1.59381        0.00006
H          2.63369       -2.54669       -0.00375
H         -0.21760       -5.03528       -0.00557
H         -1.83777       -4.84176       -0.00415
H         -3.33186        1.94624       -0.00276
