30
Coordinates from ORCA-job ./opt_b97-3c_parallel
N         -4.95228        1.59642       -0.29462
C         -3.88109        1.28286       -0.05310
C         -2.77807        0.36871       -0.01351
C         -1.57509        1.14769       -0.04270
C         -0.47877        0.22478       -0.01072
C          0.83775        0.79278       -0.05286
N          1.12402        2.05392       -0.09827
C          2.31956        2.54565       -0.00770
N          2.61537        3.59977        0.13492
C          2.98323        1.38262       -0.26291
C          2.12171        0.33158       -0.14852
C          2.67860       -0.99428       -0.17399
C          2.13064       -2.25552       -0.00532
N          2.91918       -3.03206       -0.01031
C          0.83041       -2.85939        0.18326
C         -0.45259       -2.36666        0.17430
C         -0.98873       -1.04088        0.05449
C         -2.42456       -0.96178        0.04525
N         -3.30550       -1.62864        0.07213
H         -1.51232        2.23174       -0.09180
H          2.03076        4.41205        0.33028
H          3.57263        3.94817        0.08402
H          4.04528        1.28015       -0.04549
H          3.76129       -0.94669       -0.30829
H          3.92349       -3.05211       -0.18041
H          2.63285       -4.00552        0.08510
H          0.83996       -3.94246        0.31234
H         -1.21800       -3.13019        0.28016
H         -4.29836       -1.41154       -0.01144
H         -3.16638       -2.52820       -0.38526
