23
Coordinates from ORCA-job ./opt_b97-3c_parallel
C          0.75758        2.64620        0.00319
C         -0.51271        2.23330        0.00292
N         -1.74539        1.69038        0.00257
C         -1.78544        0.31650        0.00106
C         -2.99323       -0.30087       -0.00034
C         -2.76628       -1.60212       -0.00263
C         -1.46943       -1.87516       -0.00269
C         -0.75371       -0.70533       -0.00063
C          0.72107       -0.69802       -0.00048
C          1.41717       -1.87989       -0.00152
C          2.71601       -1.63161        0.00046
C          2.96299       -0.33630        0.00244
C          1.77186        0.32026        0.00179
C          1.77875        1.76392        0.00348
H          0.97745        3.71155        0.00497
H         -1.10918        3.15908        0.00396
H         -3.96712        0.18330        0.00000
H         -3.54865       -2.35664       -0.00429
H         -1.07272       -2.88479       -0.00435
H          1.00356       -2.88307       -0.00284
H          3.48562       -2.39992        0.00015
H          3.94995        0.12090        0.00384
H          2.77528        2.19350        0.00492
