25
Coordinates from ORCA-job ./opt_b97-3c_parallel
N          2.70201       -2.69532       -0.27088
C          2.26442       -1.64507       -0.15836
C          1.76261       -0.31064       -0.01826
C          2.51061        0.84594        0.02470
N          3.59886        1.04130       -0.01484
C          1.78241        2.00113        0.17750
C          0.50132        1.52983        0.17554
N         -0.45064        2.43754        0.61663
C         -1.75725        2.23066        0.27005
N         -2.83618        1.65329       -0.33803
C         -2.42631        0.52826       -1.00512
C         -2.09121       -0.55335       -0.13157
C         -2.75537       -1.73829       -0.10078
C         -1.89377       -2.66329        0.29691
C         -0.68668       -2.15744        0.51163
C         -0.72824       -0.82190        0.22914
C          0.39314        0.09841        0.05915
H          4.05060        0.12997       -0.06112
H          4.20587        1.69674       -0.50362
H          2.03011        2.90987       -0.37065
H         -2.15978        3.11330        0.78964
H         -3.44954        0.40916       -1.39225
H         -3.80602       -1.89437       -0.33178
H         -2.15143       -3.70887        0.44816
H          0.15354       -2.71990        0.90503
