30
Coordinates from ORCA-job ./opt_b97-3c_parallel
N          0.62794        3.35152        0.78596
C          0.31945        2.29526        0.60081
C         -0.87841        2.24244       -0.19460
C         -1.62665        1.08080       -0.17666
N         -2.94550        1.04876       -0.39666
C         -3.38078       -0.24711       -0.17737
N         -4.41833       -0.61812       -0.25317
N         -2.27779       -1.02711        0.13904
C         -1.17708       -0.25803        0.11203
C          0.13052       -0.75630        0.17671
C          0.29485       -2.18175        0.38256
N         -0.05203       -3.21322        0.56817
N          1.58947       -2.55917        0.24818
C          2.28664       -1.40209       -0.05086
N          3.29409       -1.86379       -0.14349
C          1.40144       -0.28092       -0.07135
C          1.93095        1.02777       -0.39547
N          2.87193        1.49958       -0.72670
N          1.44110        2.30700       -0.13189
H         -0.07795        4.04077        1.06095
H          1.50570        3.81941        1.03733
H         -1.35234        3.17931       -0.49292
H         -5.19130       -0.02144       -0.55516
H         -4.84767       -1.52682       -0.06748
H         -1.04741       -3.29164        0.77752
H          0.30702       -4.16796        0.61706
H          3.51843       -2.86404       -0.12666
H          4.21168       -1.41704       -0.21671
H          3.10606        1.12725       -1.64805
H          3.54240        2.25309       -0.56369
