27
Coordinates from ORCA-job ./opt_b97-3c_parallel
N          4.74279        0.59574        0.45663
C          3.62418        0.78178        0.31657
C          2.22170        1.02804        0.18420
C          1.73727        2.36437        0.16398
C          0.39258        2.51155       -0.01339
C         -0.01489        1.20242       -0.05265
C         -1.38094        0.88510       -0.39849
C         -2.35645        1.75135       -0.77174
C         -3.51623        1.13362       -0.58742
C         -3.37878       -0.10146       -0.11050
N         -4.40668       -0.92039        0.16053
C         -2.03495       -0.30077        0.01844
C         -1.39545       -1.00492        1.07894
N         -0.91292       -2.20064        0.63051
C          0.29982       -2.16758       -0.03723
C          1.19216       -1.10973       -0.16721
C          2.18605       -2.11672       -0.39299
N          3.04916       -2.30744       -1.12010
C          1.05870        0.32558        0.04762
H          2.42324        3.20138        0.25418
H         -0.16191        3.25150        0.56012
H         -2.21755        2.75672       -1.16151
H         -4.47761        1.59286       -0.80664
H         -4.26014       -1.92695        0.20871
H         -5.32151       -0.75116       -0.25273
H         -2.16057       -1.65454        1.52988
H         -0.12593       -3.18331       -0.01382
