28
Coordinates from ORCA-job ./opt_b97-3c_parallel
N          3.34019       -2.89093        0.32621
C          2.35122       -2.32054        0.27733
C          1.08720       -1.64258        0.24509
C          0.10542       -2.47347        0.66492
C         -0.51316       -2.90633       -0.46260
C         -1.79961       -2.48730       -0.68327
C         -2.39768       -1.37451        0.01632
C         -3.75437       -1.27725        0.11663
N         -3.98843       -0.03838        0.52247
C         -2.84249        0.71970        0.65997
C         -1.75026       -0.12850        0.33798
C         -0.41262        0.42768        0.13375
C         -0.18805        1.78660        0.04410
C         -0.97265        2.98970        0.08798
N         -1.66452        3.78432       -0.35668
C          1.22440        1.97992       -0.20968
N          1.80730        2.91337       -0.35833
C          1.86088        0.75127       -0.23634
C          3.26193        0.49219       -0.42520
N          4.38248        0.32770       -0.57956
C          0.84720       -0.24391       -0.00406
H          0.22137       -3.12072        1.53239
H         -0.13177       -3.77820       -0.98666
H         -2.46323       -3.11042       -1.27544
H         -4.74205       -1.76027        0.07290
H         -3.46245        1.58918        0.92530
H          2.81522        3.04721       -0.42481
H          1.37656        3.82403       -0.51096
