28
Coordinates from ORCA-job ./opt_b97-3c_parallel
N         -5.00425        0.47107        0.98271
C         -3.89002        0.62107        0.78192
C         -2.49379        0.74678        0.51359
C         -2.11945        1.81008       -0.25722
N         -0.84625        1.91403       -0.57920
C         -0.37517        0.68411       -0.18296
C          1.05825        0.53158        0.00601
C          1.89752        1.58544       -0.24652
N          2.06174        2.63196       -0.58212
N          3.14584        1.27388        0.09284
C          3.02925       -0.03013        0.57092
N          4.05592       -0.31703        0.88881
C          1.74389       -0.54094        0.51004
C          1.46729       -1.74704       -0.06779
N          0.55742       -2.59939       -0.55934
C         -0.73459       -2.25969       -0.45865
N         -1.05666       -3.18005       -0.98878
C         -1.67565       -1.39001        0.02548
C         -1.46392       -0.07549        0.16646
H         -2.76184        2.68375       -0.45644
H          1.11110        2.92723       -0.82776
H          2.61734        3.48897       -0.65472
H          4.36099       -1.13792        1.41937
H          4.90952        0.24265        0.80166
H          2.18255       -2.53868       -0.34275
H         -2.06959       -3.23516       -1.12800
H         -0.71597       -4.07791       -1.34267
H         -2.65083       -1.79319        0.30323
