31
Coordinates from ORCA-job ./opt_b97-3c_parallel
N          3.45847       -2.06077       -1.64779
C          2.65056       -1.48275       -1.08250
C          1.66044       -0.74742       -0.33326
C          1.27063       -1.21173        0.97887
N          1.75561       -1.98648        1.60679
C         -0.07855       -1.73729        1.03441
C         -1.10374       -1.18290        0.19625
C         -2.38668       -1.79216        0.12773
C         -3.28939       -0.90950       -0.37922
N         -4.58990       -1.12500       -0.62486
C         -2.65925        0.24339       -0.58943
C         -1.33899        0.15904       -0.24155
C         -0.55153        1.26136        0.26574
C         -1.18030        2.52377        0.47896
C         -0.21409        3.45213        0.65278
C          0.95773        2.85072        0.50950
C          0.81277        1.50553        0.24919
C          1.72207        0.63417       -0.47363
N          2.44142        1.25330       -1.05415
H          1.57138       -2.98011        1.73030
H          2.73129       -1.90327        1.32645
H         -0.36763       -2.59748        1.64732
H         -2.61127       -2.75463        0.57671
H         -5.09109       -0.54357       -1.29356
H         -4.95003       -2.07485       -0.69388
H         -3.13118        1.12879       -1.00908
H         -2.24778        2.70623        0.41495
H         -0.37196        4.50482        0.87323
H          1.91520        3.35654        0.61106
H          3.39891        0.94279       -1.20803
H          2.37894        2.21233       -1.38922
