30
Coordinates from ORCA-job ./opt_b97-3c_parallel
N         -1.20547       -4.51793       -0.43904
C         -0.71673       -3.48784       -0.42800
C         -0.04007       -2.22845       -0.37533
C          1.12344       -2.03615       -1.18678
N          2.07980       -1.12716       -0.91326
C          2.15972       -0.02531       -0.13254
N          3.38707        0.55109        0.08321
C          3.16116        1.82677        0.57358
N          4.14195        2.31622        0.73330
C          1.82510        2.14536        0.60039
C          1.20487        1.00129        0.18653
C         -0.20462        0.97865       -0.14339
C         -0.94903        2.11270       -0.24815
C         -2.07322        1.32651       -0.26059
C         -3.08360        2.33684       -0.16398
N         -3.87303        3.16924       -0.10775
C         -2.30402       -0.02663       -0.20966
N         -3.47818       -0.66235       -0.08902
C         -0.96415       -0.21891       -0.03500
C         -0.47604       -1.34709        0.56418
N         -0.81353       -1.50586        1.85353
H          1.54907       -2.74834       -1.91022
H          4.19495        3.29300        1.02736
H          5.11386        2.01132        0.65034
H          1.40951        2.74064        1.41203
H         -0.75130        2.84152       -1.03517
H         -3.59699       -1.62123       -0.41397
H         -4.35157       -0.16366       -0.25341
H         -0.86496       -2.45184        2.23181
H         -1.64847       -1.03163        2.19753
