28
Coordinates from ORCA-job ./opt_b97-3c_parallel
N          4.88294       -0.19538       -1.10092
C          3.85199        0.10921       -0.71286
C          2.56318        0.45863       -0.20169
C          2.31477        1.74388        0.37115
N          1.27336        1.45473        0.57835
C          0.52353        0.66627        0.40522
C         -0.89649        0.47534        0.23482
C         -1.80991        1.56787        0.12767
N         -1.72837        2.66798        0.19771
C         -3.08060        1.19061       -0.24436
C         -2.96073       -0.17206       -0.40833
N         -3.91272       -0.65226       -0.69761
C         -1.66271       -0.67782       -0.09147
C         -1.37654       -2.09350       -0.01495
C         -0.40996       -2.68404        0.75585
C          0.89089       -2.58710        0.50418
C          1.33280       -1.74060       -0.45777
C          1.37087       -0.34167       -0.16861
H          2.98252        2.60734        0.50880
H         -0.72520        2.63682        0.37265
H         -2.00643        3.64649        0.22860
H         -3.95812        1.62482        0.23899
H         -4.87444       -0.32079       -0.65531
H         -3.95041       -1.64543       -0.91744
H         -2.17558       -2.73517       -0.37195
H         -0.73182       -3.33162        1.56796
H          1.60771       -3.11638        1.12740
H          1.65751       -2.12762       -1.41820
