29
Coordinates from ORCA-job ./opt_b97-3c_parallel
N          4.18916       -0.43685       -0.63628
C          3.09843       -0.28429       -0.32050
C          2.04347       -0.03464       -0.01690
C          1.79381        1.14214        0.62385
N          2.82829        1.86376        1.13979
C          0.63139        1.81089        0.75718
C         -0.60148        1.68185        0.24043
N         -1.37961        2.72352        0.49124
C         -2.42243        2.46151       -0.29122
N         -2.33765        1.26368       -0.93870
C         -1.11583        0.72646       -0.59568
C         -1.15876       -0.65520       -0.23830
C         -2.27439       -1.43142       -0.01928
N         -3.37787       -1.46382       -0.07145
C         -1.79729       -2.56835        0.57438
C         -0.48065       -2.49756        0.73549
C         -0.00321       -1.33684        0.19436
C          1.23074       -1.07038       -0.34445
N          1.47645       -2.19342       -1.07910
H          2.74762        2.87453        1.23232
H          3.78339        1.65401        0.85280
H          0.73738        2.72949        1.34246
H         -3.22396        3.21511       -0.26380
H         -4.27458       -1.87147       -0.32870
H         -3.32419       -0.55731       -0.53394
H         -2.39994       -3.41349        0.90979
H          0.13019       -3.26748        1.20063
H          2.43665       -2.49089       -1.24544
H          0.90650       -3.02709       -0.94803
