34
Coordinates from ORCA-job ./opt_b97-3c_parallel
N          3.79580        2.85730        1.15066
C          2.99848        2.17446        0.69933
C          2.00232        1.33040        0.09447
C          1.60697        1.63019       -1.25709
C          0.29366        1.97770       -1.49140
C         -0.76356        1.70691       -0.55389
C         -1.87042        2.49959       -0.42137
C         -2.74548        1.65525        0.22950
N         -3.67250        2.24552        0.37282
C         -2.22807        0.39020        0.42334
C         -3.14450       -0.52636        1.03571
N         -3.86456       -1.24700        1.55472
C         -0.94724        0.38590       -0.04663
C         -0.18810       -0.79334       -0.40892
C         -0.72652       -2.04544       -0.59394
N         -1.66863       -2.61111       -0.70527
C          0.32773       -2.91969       -0.63853
C          1.49057       -2.30603       -0.44583
N          2.67370       -2.94196       -0.48369
C          1.22782       -0.97226       -0.30435
C          1.92254        0.00471        0.51240
N          2.54109       -0.45515        1.31306
H          2.32802        2.19874       -1.83732
H          0.11626        2.74697       -2.23695
H         -1.75532        3.55076       -0.15222
H         -4.29381        1.56344        0.80530
H         -4.12023        3.15463        0.47084
H         -2.44716       -1.95662       -0.66877
H         -2.05636       -3.50829       -0.99128
H          0.24675       -3.99402       -0.81734
H          2.72415       -3.94166       -0.29942
H          3.49977       -2.50156       -0.08357
H          3.40319       -0.08265        1.70716
H          2.37112       -1.35479        1.75945
