28
Coordinates from ORCA-job ./opt_b97-3c_parallel
N          3.79029        0.63620        1.28726
C          3.05123        0.10012        0.59868
C          2.07803       -0.15836        0.12467
C          1.70761        0.75953       -0.82421
N          1.95213        1.32108       -1.75082
N          0.82250        1.76812       -0.80594
C         -0.19481        1.86844        0.07496
N         -0.82770        3.06451        0.31539
C         -2.07519        2.78106        0.85396
N         -2.29454        1.41287        0.82902
C         -1.13071        0.83161        0.38826
C         -1.09198       -0.54542       -0.06026
C         -2.20033       -1.32551       -0.29609
N         -3.30285       -1.26156       -0.28770
C         -1.72568       -2.54607       -0.69233
C         -0.39880       -2.56521       -0.67504
C          0.06766       -1.36413       -0.23596
C          1.25633       -1.16796        0.41981
N          1.44919       -2.08986        1.38657
H          2.14767        2.12146       -2.35242
H          2.78059        0.72884       -1.79477
H         -2.93266        3.38253        1.19403
H         -3.90442       -0.62685        0.23487
H         -3.87101       -2.08078       -0.50169
H         -2.33778       -3.39513       -0.99908
H          0.21742       -3.41745       -0.95415
H          0.93205       -2.96838        1.37192
H          2.38784       -2.28607        1.73317
