28
Coordinates from ORCA-job ./opt_b97-3c_parallel
N          3.97397        1.19486        0.03707
C          3.13644        0.47536        0.02133
C          2.96517       -0.93574        0.01268
C          1.56486       -1.15777       -0.00562
N          1.21746       -2.48935       -0.03214
C          0.02714       -3.18207       -0.03400
C         -1.36903       -2.87676        0.02322
C         -2.08107       -1.63541        0.03180
C         -1.62624       -0.27285       -0.01556
C         -2.63188        0.74365       -0.05967
N         -3.73659        0.78378       -0.09262
C         -2.16554        2.03188       -0.06929
C         -0.80764        1.80529       -0.09221
N         -0.40948        2.84017       -0.16275
C         -0.38779        0.42383       -0.03568
C          0.95296        0.07118       -0.01453
N          1.88062        1.05629        0.00053
H          3.96115        2.21443        0.03491
H          4.95495        0.92402        0.10243
H          3.74733       -1.68944        0.01848
H          0.22050       -4.26610       -0.04942
H         -2.01031       -3.75251        0.04296
H         -3.15922       -1.76596        0.05936
H         -4.16549       -0.12922       -0.22941
H         -4.49254        1.46630       -0.10797
H         -2.61837        2.79025        0.58098
H         -1.04486        3.63837       -0.16231
H          0.51195        3.22220       -0.36196
