26
Coordinates from ORCA-job ./opt_b97-3c_parallel
N          4.97400       -0.57139       -0.52545
C          3.91829       -0.16892       -0.35417
C          2.60484        0.34055       -0.09554
C          2.42369        1.59299        0.56434
N          1.36759        1.33319        0.33374
C          0.41142        0.79028        0.16850
C         -0.99897        0.58462       -0.07015
C         -1.87057        1.64013       -0.17694
N         -1.78316        2.73991       -0.22581
C         -3.13384        1.11058       -0.16568
C         -3.12401       -0.21053       -0.00651
N         -4.23070       -0.96785        0.06744
C         -1.82088       -0.58826        0.07721
C         -1.37693       -1.86330        0.60496
N         -0.18093       -2.56527        0.64910
C          0.72898       -2.05390       -0.17466
N          1.04769       -1.18772       -1.07269
C          1.35812       -0.14322       -0.37485
H          2.97731        2.42991        1.01338
H         -0.76906        2.83760       -0.22944
H         -2.17065        3.66283       -0.41196
H         -4.04645        1.69877       -0.25545
H         -5.11792       -0.61981       -0.29055
H         -4.18333       -1.96923       -0.11103
H         -1.64045       -2.84825        1.01819
H          1.51388       -2.79832        0.02924
