28
Coordinates from ORCA-job ./opt_b97-3c_parallel
N          4.27490       -1.20475        0.46043
C          3.10379       -0.63654        0.13772
C          2.96392        0.63764       -0.21257
C          1.64880        0.98542       -0.33039
N          1.34907        2.24491       -0.67363
C          0.08628        2.54697       -0.27775
N         -1.18210        2.82625        0.12632
C         -1.92236        1.74693        0.55616
C         -1.68514        0.37216        0.17587
C         -2.77806       -0.54469        0.16809
N         -3.84552       -0.35130        0.38000
C         -2.43382       -1.81604       -0.21701
C         -1.05874       -1.74895       -0.27780
N         -0.71481       -2.77076       -0.52785
C         -0.52813       -0.42582       -0.09902
C          0.90004       -0.14604       -0.08238
C          1.85693       -1.17429        0.16584
H          5.02625       -0.62053        0.82415
H          4.28262       -2.07056        0.99621
H          3.78733        1.34446       -0.29080
H          0.11753        3.57241       -0.67667
H         -2.81952        2.29329        0.87999
H         -4.00232        0.65496        0.35520
H         -4.76125       -0.79307        0.40556
H         -2.98906       -2.69325        0.12247
H          0.20243       -2.59695       -0.93468
H         -1.07393       -3.61532       -0.96992
H          1.61001       -2.19243        0.44578
