30
Coordinates from ORCA-job ./opt_b97-3c_parallel
N         -3.22736       -3.02005        0.90921
C         -2.39552       -2.33462        0.52881
C         -1.34780       -1.46289        0.09060
C         -0.29012       -2.13414       -0.44769
N          0.80673       -2.11575       -1.11563
C          1.80466       -1.67413       -0.43155
N          2.52419       -2.50463       -0.54663
C          1.87675       -0.34961        0.11365
C          3.10300        0.19276        0.58847
C          3.08275        1.53865        0.83941
C          1.78229        1.85135        0.50268
N          1.71952        2.93113        0.73490
C          0.96906        0.74691        0.06760
C         -0.44503        0.92662       -0.26277
C         -0.95130        2.18406       -0.39431
C         -2.25030        1.75731       -0.37058
N         -3.00385        2.56317       -0.44154
C         -2.74468        0.51873       -0.06728
C         -1.50542       -0.04533       -0.12174
H         -0.19980       -3.23217       -0.43231
H          2.44618       -3.36030       -1.09260
H          2.82211       -1.77225       -1.18803
H          4.00185       -0.41450        0.63314
H          3.93311        2.15006        0.53064
H          2.11475        3.54158        1.44768
H          0.75938        2.73676        1.01384
H         -0.58448        2.84498       -1.17866
H         -3.90263        2.35741       -0.87390
H         -2.78150        3.53005       -0.67119
H         -3.57572        0.08863       -0.62436
