32
Coordinates from ORCA-job ./opt_b97-3c_parallel
N         -4.65064       -0.11708       -0.97268
C         -3.91355       -0.53740       -0.20685
C         -2.48955       -0.38352       -0.05926
C         -1.44864       -1.29803       -0.11788
N         -1.72019       -2.35036       -0.32040
C         -0.23423       -0.56505        0.10406
C          1.04009       -1.22598        0.27654
C          1.18682       -2.62807        0.51798
C          2.50236       -2.95962        0.46304
C          3.21277       -1.87879        0.17565
C          2.39278       -0.79456        0.05283
C          2.76668        0.34139       -0.74918
C          2.18157        1.59202       -0.73592
N          2.64771        2.43788       -1.27569
N          1.32093        2.21951        0.08757
C          0.29957        1.78123        0.84095
N          0.27290        2.81571        1.23571
C         -0.54460        0.74749        0.30162
C         -1.97104        0.93190        0.25501
N         -2.47203        1.90680        0.43296
H         -2.68715       -2.62233       -0.49859
H         -1.16339       -3.19403       -0.45113
H          0.37370       -3.31642        0.71667
H          2.90629       -3.95805        0.62117
H          4.29727       -1.86119        0.07401
H          3.70866        0.21489       -1.28070
H          2.82265        2.13341       -2.23506
H          3.15369        3.31953       -1.17559
H          0.53139        3.40725        2.02708
H         -0.74261        2.71070        1.30107
H         -3.33893        1.42180        0.66916
H         -2.75311        2.68390       -0.16608
