33
Coordinates from ORCA-job ./opt_b97-3c_parallel
N          4.56387        0.05468        1.68847
C          3.56159        0.05877        1.13841
C          2.30816        0.02572        0.43434
C          1.72590        1.26904        0.62154
C          0.59225        1.74585       -0.00416
C          0.25424        3.07329       -0.10039
N          0.75093        4.02840        0.14691
C         -1.00849        3.13562       -0.61337
C         -1.52289        1.92742       -0.80815
N         -2.70152        1.74915       -1.42678
C         -0.57375        1.02326       -0.42316
C         -0.79517       -0.30699        0.11123
C         -2.08371       -0.82643        0.48607
C         -3.20271       -0.07312        0.96347
N         -4.10152        0.50267        1.37088
C         -2.20411       -2.19506        0.55048
C         -0.99073       -2.50750       -0.00627
C         -0.99778       -3.91272       -0.27392
N         -0.33005       -4.83745       -0.34435
C         -0.08990       -1.42426       -0.19738
C          1.12867       -1.59323       -0.93392
C          2.14526       -0.65451       -0.83373
N          2.97328       -1.13758       -1.38969
H          2.25186        2.00390        1.23067
H          0.57068        4.98422       -0.15442
H          1.69730        3.79970       -0.15092
H         -1.51651        4.05975       -0.88838
H         -3.22353        0.88669       -1.28551
H         -3.37662        2.51138       -1.45246
H         -2.54557       -2.67999        1.46403
H          1.23887       -2.53762       -1.47516
H          3.85479       -0.79700       -1.00876
H          3.20594       -1.89632       -2.02780
