28
Coordinates from ORCA-job ./opt_b97-3c_parallel
N         -0.91395       -4.91564       -0.75340
C         -0.70086       -3.84224       -0.42517
C         -0.40077       -2.51056        0.00659
C         -1.18986       -1.80057        0.95650
N         -2.37127       -1.34491        0.44985
C         -2.30693       -0.03330        0.01460
C         -3.44451        0.67339       -0.23972
C         -2.97058        1.96748       -0.27051
N         -3.43876        2.95756       -0.41978
N         -1.63377        2.03357       -0.13370
C         -1.14650        0.80704        0.03478
C          0.29273        0.55998        0.13683
C          1.15758        1.69743        0.20632
C          2.50926        1.23242        0.11423
C          3.58024        2.18179        0.14699
N          4.41012        2.96663        0.16941
C          2.48090       -0.14174       -0.03153
N          3.41182       -0.72583       -0.14961
C          1.10519       -0.55718        0.00674
C          0.83088       -1.96129       -0.24031
H         -2.04612       -2.47732        1.10716
H         -4.37861        0.42664        0.26203
H         -3.05913        3.89895       -0.52315
H         -4.45036        3.05468       -0.51362
H          0.86066        2.73881        0.28436
H          3.57962       -1.69595        0.11287
H          4.32866       -0.28715       -0.23199
H          1.62391       -2.59082       -0.63548
