32
Coordinates from ORCA-job ./opt_b97-3c_parallel
N         -4.55189       -2.15656       -0.26742
C         -3.43859       -1.92325       -0.16224
C         -2.05301       -1.57319       -0.04629
C         -1.12298       -2.59375       -0.48900
C          0.23824       -2.69540       -0.04531
C          0.60383       -1.89049        1.07761
N          0.57322       -2.05299        2.16592
C          1.31515       -1.02093        0.18745
C          2.66968       -0.97505        0.05186
N          3.47873       -1.66924        0.33621
C          2.81138        0.33827       -0.50492
C          3.97076        1.10080       -0.86025
N          4.56392        1.73780       -1.59917
C          1.69737        1.12299       -0.69358
C          0.77602        0.22084       -0.22434
C         -0.54465        0.55837        0.02732
C         -0.89223        1.94348        0.11381
C         -0.47151        3.31301        0.06615
N         -0.68165        4.37811        0.42351
C         -2.29820        1.94630        0.40934
N         -3.30385        2.35820        0.62445
N         -2.76658        0.69087        0.46476
C         -1.70332       -0.17274        0.22895
H         -1.51538       -3.45380       -1.02449
H          0.82516       -3.54749       -0.37921
H          0.46210       -2.94609        2.64630
H          1.57518       -1.85793        2.16929
H          3.57479       -2.60747       -0.04975
H          4.40671       -1.24837        0.30507
H          1.53537        1.63997       -1.63851
H         -3.07727        3.32473        0.86571
H         -4.29859        2.34880        0.39678
