32
Coordinates from ORCA-job ./opt_b97-3c_parallel
N         -3.22548       -1.19840       -1.21530
C         -3.04906       -0.47050       -0.35340
C         -1.88338        0.34980       -0.19662
C         -2.15707        1.70785       -0.28335
N         -2.99509        2.41475       -0.44678
C         -1.08026        2.55404       -0.10745
C         -0.07793        1.64222        0.04614
N          1.07445        2.10623        0.58783
C          2.16068        1.26275        0.53606
N          2.51424        2.19063        1.02651
C          2.45249        0.84169       -0.80310
C          2.25697       -0.49537       -1.06747
N          2.95210       -0.80472       -1.86746
C          1.50738       -1.33036       -0.15880
C          1.61916       -2.67494       -0.03770
C          0.51262       -3.10415        0.54813
C         -0.36009       -2.13532        0.81531
N         -1.49612       -2.38342        1.48390
C          0.21087       -0.97091        0.37193
C         -0.47455        0.26445       -0.00111
H         -3.77481        1.77711       -0.60550
H         -3.39312        3.35370       -0.45248
H         -1.12658        3.43157        0.54401
H          2.60985        2.97420        1.67279
H          3.44307        1.77516        0.95327
H          3.03807        1.50860       -1.43781
H          3.72728       -0.72818       -2.52669
H          2.51309       -1.70615       -2.05621
H          2.47459       -3.28423       -0.32031
H          0.34772       -4.14927        0.80506
H         -2.36952       -1.96309        1.17130
H         -1.71826       -3.34206        1.75025
