25
Coordinates from ORCA-job ./opt_b97-3c_parallel
N         -3.87190       -0.16047       -0.04534
C         -2.62581        0.27915       -0.27624
C         -2.26647        1.56981        0.01215
C         -1.04503        1.89134        0.54202
C         -0.41139        0.72863        0.23643
C          1.03052        0.73853       -0.00281
C          1.73080        1.90873       -0.09411
C          2.97090        1.45813       -0.47270
N          3.13512        0.08567       -0.49967
C          1.89534       -0.38342       -0.17604
C          1.70846       -1.70881        0.12853
C          0.59897       -2.05002        0.82829
C         -0.09335       -2.37908       -0.29046
C         -1.10921       -1.52779       -0.82485
C         -1.37491       -0.24502       -0.21563
H         -4.56296        0.46469        0.36504
H         -4.01602       -1.08651        0.35173
H         -2.97562        2.36855       -0.17942
H         -0.96349        2.32915        1.53325
H          1.30069        2.78523       -0.57286
H          3.83648        2.10447       -0.68207
H          2.51948       -2.42243        0.00449
H          0.65894       -2.73476        1.67047
H         -0.04867       -3.38891       -0.69067
H         -1.85927       -1.98612       -1.46203
