31
Coordinates from ORCA-job ./opt_b97-3c_parallel
N         -4.76496        0.92694       -0.43134
C         -3.64363        1.13666       -0.36043
C         -2.23317        1.36337       -0.30223
C         -1.68323        2.60537       -0.38683
C         -0.36422        2.51658       -0.30262
C         -0.00159        1.20666       -0.19802
C          1.30421        0.73131        0.17249
C          2.40764        1.53024        0.60412
N          2.54334        2.58534        0.89692
C          3.58534        0.82089        0.69368
C          3.24603       -0.37921        0.10940
N          4.05310       -1.06726       -0.20545
C          1.84009       -0.53288       -0.09549
C          1.28515       -1.37230       -1.10445
N          0.58228       -2.43216       -0.57699
C         -0.58450       -2.14389        0.03388
N         -0.41858       -3.23825        0.15634
C         -1.40954       -1.02303        0.14332
C         -2.64023       -1.56449        0.64224
N         -3.58758       -2.04161        1.06582
C         -1.18474        0.37995       -0.20659
H         -2.24123        3.53204       -0.50814
H          0.31536        3.36335       -0.36929
H          3.30200        3.08630        1.35720
H          1.67653        3.01405        1.21607
H          4.55718        1.28756        0.51637
H          4.41806       -2.01895       -0.20466
H          4.86904       -0.45763       -0.25291
H          1.99257       -2.12671       -1.48272
H         -1.02233       -3.31359        0.97620
H         -0.42209       -4.16555       -0.27028
