29
Coordinates from ORCA-job ./opt_b97-3c_parallel
N          3.47955       -2.23484        0.19008
C          2.80135       -1.31996        0.09531
C          1.99150       -0.14417       -0.01990
C          2.66175        1.11799        0.00012
N          3.53514        1.78944        0.05197
N          1.64573        1.55550       -0.08840
C          0.53865        1.59754       -0.16976
C         -0.50765        2.40802       -0.49148
C         -1.58475        2.51746        0.33408
N         -2.29682        1.70662        0.59115
C         -2.52787        0.64073        0.40212
N         -3.61176        0.67052        0.62816
C         -1.80754       -0.54060        0.00475
C         -2.40169       -1.82469       -0.14563
C         -1.51735       -2.83504       -0.41310
C         -0.32098       -2.14485       -0.43977
N          0.36891       -2.96296       -0.71285
C         -0.40946       -0.73260       -0.18433
C          0.65746        0.16582       -0.11642
H          4.12195        2.52309        0.44344
H          3.92712        0.90021        0.35697
H         -0.36479        3.14671       -1.27862
H         -2.24273        3.02076       -0.39240
H         -3.25470        0.13459        1.41728
H         -4.23894        1.37431        1.01266
H         -3.46677       -1.97557       -0.00131
H         -1.63998       -3.79125        0.10218
H          0.87584       -3.84619       -0.69274
H          0.87041       -2.35167       -1.35405
