31
Coordinates from ORCA-job ./opt_b97-3c_parallel
N          3.85146        3.63516        0.38562
C          2.97587        2.91387        0.25420
C          1.85509        2.02521        0.12785
C          0.55618        2.63548        0.06126
C         -0.78655        2.13997       -0.03330
C         -1.36936        0.82547        0.00446
C         -2.73987        0.77780        0.00126
C         -3.88853        1.63300       -0.03089
N         -4.93590        1.55982       -0.48540
C         -3.02876       -0.61625        0.05653
N         -3.78608       -1.42399        0.08817
N         -1.89931       -1.40161        0.07816
C         -0.87186       -0.52306        0.04622
C          0.46215       -1.07105       -0.00415
C          0.67727       -2.49413       -0.06636
N          0.13829       -3.46264       -0.10234
C          1.99324       -2.88853       -0.12897
C          2.61566       -1.66506       -0.14082
N          3.70054       -1.86044       -0.23666
C          1.76447       -0.51518       -0.03401
C          2.34257        0.73273        0.04574
H          0.58933        3.72217        0.08568
H         -1.50754        2.95166       -0.07973
H         -4.11766       -2.37391        0.25377
H         -4.61820       -0.86587       -0.11239
H         -0.68873       -3.56202        0.48152
H          0.59463       -4.37460       -0.10772
H          2.38470       -3.71083        0.48249
H          4.35067       -2.63981       -0.33128
H          4.18325       -1.04080       -0.60060
H          3.43046        0.66001        0.05764
