35
Coordinates from ORCA-job ./opt_b97-3c_parallel
N          4.19038       -2.92067        0.02257
C          3.53779       -1.99311       -0.10900
C          2.76167       -0.80424       -0.26160
C          1.38374       -0.70576        0.13187
C          0.72029       -1.55961        0.96073
C         -0.51331       -1.97757        0.71349
N         -1.19307       -2.74757        1.58277
C         -1.19191       -1.60863       -0.41766
C         -1.38068       -2.74339       -1.28262
N         -1.49527       -3.63523       -1.98922
C         -2.00705       -0.41640       -0.45952
N         -2.95911       -0.41654       -1.02472
C         -1.49701        0.79158        0.17566
C         -2.30776        1.97537        0.28251
N         -3.34808        2.33332        0.17033
C         -1.61534        3.13712        0.55386
C         -0.33598        2.66494        0.37655
N          0.30272        3.56873        0.35409
C         -0.20620        1.24575        0.26379
C          1.05714        0.61040       -0.05730
N          2.08310        1.33204       -0.51677
C          3.09717        0.47244       -0.65959
N          3.95271        1.07495       -1.01719
H          1.20661       -1.86701        1.88519
H         -0.69659       -3.36437        2.22437
H         -2.03379       -3.23831        1.27851
H         -3.55150        0.39714       -1.18614
H         -3.56867       -1.23296       -1.05659
H         -3.80482        1.47778        0.48347
H         -3.92203        3.10771        0.50040
H         -1.86968        3.75178        1.42352
H          0.30969        3.85597       -0.62381
H          0.06156        4.40083        0.89240
H          4.08922        2.00079       -1.42301
H          4.88681        0.70383       -0.84052
