34
Coordinates from ORCA-job ./opt_b97-3c_parallel
N         -5.20229       -0.85396        0.25662
C         -4.23711       -0.31223       -0.03026
C         -3.02945        0.38558       -0.34372
C         -2.92077        1.64359       -0.85045
C         -1.65103        2.02936       -0.84032
C         -0.85563        1.03362       -0.34832
C          0.48569        1.22654        0.18141
C          1.03487        2.53883        0.34970
N          0.72678        3.60102        0.34085
C          2.38935        2.57713        0.58059
C          2.73728        1.27561        0.30122
N          3.84361        1.26539        0.27166
C          1.63359        0.37713        0.10604
C          1.75007       -0.90797       -0.40397
N          2.67721       -1.28954       -0.87535
C          0.76380       -1.87249       -0.33144
C          0.57673       -3.19679       -0.85846
N          0.45190       -4.24348       -1.30708
C         -0.10699       -1.70440        0.80453
N         -0.05486       -2.14841        1.81901
C         -1.47672       -1.32815        0.64149
C         -1.71310       -0.07948       -0.03302
H         -3.74659        2.22941       -1.24745
H         -1.29657        2.96545       -1.26442
H         -0.28128        3.45797        0.32911
H          0.89258        4.50914        0.76988
H          2.80261        3.10150        1.44742
H          4.65156        1.55683        0.81877
H          3.75722        0.25699        0.39248
H          2.96223       -0.46576       -1.40439
H          2.85918       -2.09959       -1.46568
H         -0.84957       -2.56642        2.30062
H          0.52984       -2.92529        1.51066
H         -2.31731       -1.97520        0.88007
