30
Coordinates from ORCA-job ./opt_b97-3c_parallel
N          5.53243        0.60604       -0.82841
C          4.42466        0.56961       -0.54923
C          3.03141        0.54678       -0.23983
C          2.34699        1.70662        0.19488
C          1.01892        1.23672        0.33446
C          0.04350        2.12614        0.88108
N          0.05289        3.15715        1.27710
N         -1.20495        1.82745        0.94664
C         -2.15133        1.51156        0.12728
N         -2.69873        2.46283       -0.01520
C         -2.50244        0.15122       -0.16117
C         -3.81172       -0.13911       -0.67243
N         -4.84206       -0.37848       -1.11117
C         -1.55252       -0.90804        0.14292
C         -2.00670       -2.26742        0.17829
C         -1.04694       -3.23476        0.31728
C          0.05204       -2.41247        0.25921
C          1.11342       -3.37259        0.34024
N          2.11735       -3.90772        0.22314
C         -0.18079       -1.00095        0.19329
C          0.96241       -0.10948        0.02361
C          2.21900       -0.54732       -0.33572
H          2.74465        2.69909        0.38348
H          0.73364        2.65731        1.84576
H         -0.66893        3.48727        1.91602
H         -2.30641        3.38259       -0.20804
H         -3.20562        2.17838       -0.85152
H         -3.06058       -2.51441        0.10484
H         -1.12609       -4.15715       -0.25934
H          2.34149       -1.23416       -1.17084
