28
Coordinates from ORCA-job ./opt_b97-3c_parallel
N         -4.00367       -0.47385       -1.03256
C         -2.93346       -0.64983       -0.67689
C         -1.58160       -0.80243       -0.23334
C         -0.76068       -1.89051       -0.68260
N         -0.69089       -2.80721       -1.29009
N          0.49761       -2.09230       -0.23819
C          1.44126       -1.30930        0.34271
N          2.62169       -1.87566        0.74010
C          3.52219       -0.83193        0.84900
C          3.04065        0.38445        0.43559
C          1.73162        0.09541        0.17320
C          0.81981        1.10106       -0.34229
C          1.20107        2.31289       -0.84967
N          0.04434        2.95899       -0.95243
C         -1.06993        2.28357       -0.48658
N         -1.91993        2.98397       -0.58523
C         -0.56419        1.02744       -0.03462
C         -1.21738        0.09954        0.71694
N         -1.50784        0.45135        1.98067
H         -0.24180       -3.40459       -1.98472
H         -1.63572       -3.17486       -1.17475
H          4.50716       -1.21275        1.16413
H          3.32484        1.29234        0.96466
H          1.85706        3.08365       -1.28563
H         -2.79367        2.89695       -0.06148
H         -2.03857        3.81786       -1.16379
H         -2.16492       -0.09723        2.53954
H         -0.80265        0.82982        2.61352
