26
Coordinates from ORCA-job ./opt_b97-3c_parallel
N          0.48150        3.58692        0.30731
C          0.14892        2.54819        0.15688
C         -1.15168        2.00598        0.40184
C         -1.57173        0.70475        0.15914
N         -2.87879        0.42551        0.21165
C         -3.04669       -0.92513        0.00552
N         -4.07377       -1.32806        0.00959
N         -1.79977       -1.50480       -0.12841
C         -0.85884       -0.54950       -0.05013
C          0.50389       -0.87572       -0.05442
C          0.86504       -2.27499       -0.01425
N          2.20791       -2.45934        0.00920
C          2.74790       -1.18903       -0.03129
N          3.83335       -1.40853       -0.04763
C          1.70812       -0.22621       -0.07506
C          2.00930        1.14710       -0.26767
N          1.06641        1.97007       -0.52784
H         -0.23354        4.27318        0.54544
H          1.34609        4.11339        0.18734
H         -1.88657        2.73582        0.73593
H         -4.87126       -0.70449       -0.12047
H         -4.47132       -2.25791        0.14665
H          0.64221       -3.35302        0.02183
H          4.36685       -2.27776       -0.11331
H          4.53400       -0.66631       -0.07217
H          2.85265        1.84794       -0.36862
