27
Coordinates from ORCA-job ./opt_b97-3c_parallel
N          2.21751       -2.33357       -0.43129
C          1.45273       -1.54748       -0.26483
N          0.68142       -2.69830       -0.18536
C         -0.63767       -2.85080        0.03595
C         -1.83464       -2.18444        0.13450
C         -2.10106       -0.77905        0.05973
C         -3.46719       -0.38795        0.07397
C         -3.45478        1.04115        0.03027
N         -2.14003        1.48823        0.01929
C         -1.38262        0.38073        0.03064
C          0.03952        0.61754        0.05385
C          0.51953        1.95767        0.16054
N          0.55980        3.05737        0.25625
N          1.90282        2.02014        0.12195
C          2.31033        0.73848       -0.02121
N          3.35984        1.10369       -0.03129
C          1.16588       -0.14599       -0.05805
H          2.72997       -3.03734        0.10742
H          2.30358       -2.63582       -1.40567
H         -0.90272       -3.91859        0.10177
H         -2.72639       -2.79667        0.24714
H         -4.34244       -1.03063        0.10386
H         -4.46664        1.47603        0.02388
H         -0.45527        3.01995        0.15177
H          0.77646        4.01447        0.53605
H          3.92231        1.25249        0.81039
H          3.76780        1.72851       -0.72974
