33
Coordinates from ORCA-job ./opt_b97-3c_parallel
N          3.63986        2.70739        0.82873
C          2.95174        2.00932        0.23695
C          2.33310        1.12323       -0.00759
C          1.64011        1.52871       -1.11097
N          0.36772        1.94656       -1.44255
C         -0.62307        1.72766       -0.49453
C         -1.70554        2.55929       -0.47939
C         -2.66229        1.80835        0.16199
N         -3.62224        2.33502        0.31456
C         -2.27641        0.51858        0.45704
C         -3.02562       -0.51585        1.10518
N         -3.64465       -1.31464        1.63941
C         -0.90867        0.43280        0.05826
C         -0.17750       -0.80345       -0.16595
C         -0.72150       -2.02421       -0.48457
N         -1.65328       -2.57062       -0.71609
C          0.34154       -2.87259       -0.64990
C          1.50437       -2.26023       -0.44627
N          2.69474       -2.86938       -0.56993
C          1.24238       -0.96384       -0.10963
C          2.09886       -0.08382        0.50216
N          2.67261       -0.56550        1.62253
H          1.79688        1.92757       -2.12530
H         -1.58282        3.62460       -0.28762
H         -3.92058        3.28996        0.50424
H         -4.30158        1.71989        0.76001
H         -1.96026       -3.51681       -0.93342
H         -2.49559       -2.00537       -0.62779
H          0.26920       -3.92436       -0.93399
H          2.75628       -3.88299       -0.49868
H          3.51399       -2.47425       -0.11188
H          2.22343       -1.30845        2.15395
H          3.14337        0.06166        2.27158
