32
Coordinates from ORCA-job ./opt_b97-3c_parallel
N         -1.68074       -4.66777        0.95597
C         -1.51592       -3.57931        0.64687
C         -1.28973       -2.22743        0.21488
C         -1.91736       -1.75894       -0.98546
C         -2.23024       -0.44375       -1.23473
C         -2.19629        0.54211       -0.19103
C         -3.20429        1.45214       -0.06115
C         -2.43501        2.49689        0.37413
N         -2.90720        3.47398        0.60285
C         -1.07821        2.41361        0.54651
C         -0.93698        1.11287        0.16696
C          0.34872        0.51064       -0.15536
C          1.48206        1.28445       -0.23108
N          1.71699        2.36605       -0.26962
C          2.54661        0.31830       -0.18205
C          3.94591        0.66571       -0.19943
N          5.04450        0.96671       -0.18668
C          2.16750       -0.99728       -0.06015
N          2.96002       -2.06345        0.14872
C          0.80446       -0.85263       -0.03143
C         -0.00925       -1.86793        0.59913
H         -2.46905       -2.50642       -1.54989
H         -3.00696       -0.31600       -1.98326
H         -3.94536        1.59014       -0.84794
H         -3.90706        3.63837        0.52208
H         -2.51261        4.28757        1.06814
H         -0.58766        2.79912        1.43934
H          0.95948        3.03249       -0.40259
H          2.58958        2.88859       -0.32770
H          3.97191       -1.98424        0.02270
H          2.67545       -2.99224       -0.14910
H          0.56259       -2.59707        1.17181
