25
Coordinates from ORCA-job ./opt_b97-3c_parallel
N         -3.78345        2.07613       -0.09836
C         -2.68794        1.75396       -0.05824
C         -1.32424        1.29338       -0.01700
C         -0.55503        2.45162        0.01133
C          0.85666        2.72224        0.07087
C          2.00206        1.96087        0.06583
C          2.24315        0.54815        0.00002
C          3.62270        0.18087       -0.02322
N          3.07558       -0.79081       -0.05806
C          2.41857       -1.68882       -0.07974
C          1.50751       -0.58726       -0.02948
C          0.10059       -0.87793       -0.00393
C         -0.29605       -2.24855        0.00519
C         -1.72198       -2.23812        0.02559
N         -2.56434       -2.95162        0.04470
N         -2.15129       -0.96612        0.01724
C         -1.03988       -0.12483        0.00347
H         -1.08642        3.40487        0.00515
H          1.05809        3.78920        0.11010
H          2.92457        2.53527        0.10231
H          4.63166        0.62060       -0.01290
H          2.98145       -2.63483       -0.11785
H          0.33379       -3.13270        0.00438
H         -3.56153       -2.73882        0.03518
H         -2.49233       -3.96317        0.15182
