34
Coordinates from ORCA-job ./opt_b97-3c_parallel
N          5.47000       -0.78977        1.49460
C          4.39541       -0.71007        1.11511
C          3.05935       -0.59628        0.60380
C          2.51591       -1.71540        0.03025
C          1.27900       -1.24799       -0.32071
C          0.36790       -1.73844       -1.32158
N          0.66855       -1.74682       -2.38334
C         -0.72005       -2.63456       -1.06354
C         -1.65671       -2.25719       -0.01994
N         -2.16130       -3.18880        0.30266
C         -1.82844       -0.90005        0.49127
C         -2.69197       -0.70561        1.62258
N         -3.34881       -0.55459        2.54555
C         -1.43706        0.22754       -0.34402
C         -2.23211        1.42802       -0.38637
C         -3.66122        1.48909       -0.32376
N         -4.80045        1.53058       -0.24381
C         -1.58883        2.61872       -0.60608
C         -0.30290        2.20842       -0.38301
C          0.72264        3.19149       -0.53981
N          1.52551        3.98925       -0.69879
C         -0.13521        0.79516       -0.22491
C          1.08108        0.05730        0.04338
C          2.24630        0.58825        0.66620
N          2.60588        1.51821        1.14247
H          3.09403       -2.33604       -0.65047
H          0.51290       -2.57524       -2.95488
H          1.65223       -1.50230       -2.48344
H         -0.69043       -3.66710       -1.41586
H         -2.31862       -4.11503       -0.08995
H         -3.03243       -2.90929        0.75126
H         -1.83937        3.23681       -1.46619
H          3.54260        1.53120        1.54232
H          2.43078        2.45378        0.77946
