27
Coordinates from ORCA-job ./opt_b97-3c_parallel
N          3.85090       -1.54150       -0.89954
C          2.74357       -1.36045       -0.68657
C          1.35552       -1.17488       -0.39546
C          0.36480       -2.01172       -1.00530
N         -0.91509       -2.06369       -0.58513
C         -1.71766       -1.21175        0.09487
N         -2.96992       -1.61183        0.46984
C         -3.64586       -0.44408        0.77071
C         -2.95919        0.71898        0.53506
C         -1.74888        0.22633        0.14254
C         -0.70376        1.09008       -0.35206
C         -0.79561        2.41657       -0.61860
C          0.44400        2.88314       -0.66537
C          1.35608        1.94832       -0.41858
N          2.67876        2.17516       -0.41536
C          0.67686        0.79260       -0.15224
C          1.10163       -0.27167        0.58610
N          1.24985       -0.09138        1.90831
H          0.71223       -2.81001       -1.67922
H         -4.68880       -0.61446        1.08017
H         -3.02194        1.54630        1.23936
H         -1.70449        2.98855       -0.79180
H          0.68399        3.92107       -0.88652
H          3.34036        1.41993       -0.58861
H          3.05792        3.02841       -0.82408
H          1.35596        0.85841        2.26581
H          1.92625       -0.66194        2.41528
