27
Coordinates from ORCA-job ./opt_b97-3c_parallel
N          3.39260       -0.20808        2.19049
C          2.65305       -0.61419        1.42075
C          1.70044       -1.07249        0.45845
C          1.70153       -2.40989       -0.04865
N          0.82371       -2.06685       -0.62042
C         -0.08413       -1.49542       -0.37968
C         -1.50372       -1.34846       -0.20302
C         -2.33814       -2.39930       -0.43303
N         -3.24202       -1.48356       -0.69081
C         -3.27833       -0.11923       -0.54655
C         -2.10777       -0.17581        0.15123
C         -1.73213        0.98013        0.77831
N         -2.24370        1.44940        1.64288
N         -0.87618        2.02035        0.77681
C          0.21402        2.14153       -0.02258
N          0.13178        3.23038        0.13762
C          0.84492        1.03291       -0.70723
C          1.91544        1.23441       -1.62922
N          2.78694        1.41573       -2.34322
C          0.66460       -0.28850       -0.15798
H          2.28818       -3.33035        0.09517
H         -2.30595       -3.49132       -0.57100
H         -4.28589       -0.22815       -0.97670
H         -2.95587        0.82604        2.02367
H         -2.38441        2.34714        2.10718
H          1.10177        3.28547       -0.17259
H         -0.28457        4.13667       -0.07313
