30
Coordinates from ORCA-job ./opt_b97-3c_parallel
N          4.51044        0.77015        0.02183
C          3.42287        0.54917        0.03486
C          2.27130        1.29596       -0.07323
C          1.22695        0.41225       -0.00524
C         -0.17193        0.85822        0.03262
C         -0.44114        2.27113        0.09436
N         -0.20466        3.34782        0.12620
N         -1.76044        2.38141        0.24414
C         -2.29484        1.16026        0.26470
N         -3.31340        1.57788        0.43190
C         -1.37443        0.04282        0.09609
C         -2.11223       -1.12072       -0.33639
N         -3.04330       -1.59895       -0.68647
N         -1.57035       -2.39195       -0.27933
C         -0.21152       -2.40546       -0.03585
N         -0.23101       -3.50867        0.05988
N          1.13280       -2.19593        0.18690
C          1.73814       -0.93672        0.11082
N          3.10835       -0.79955        0.14598
H          5.31625        0.14127        0.09072
H          4.93658        1.69302       -0.10581
H          2.23991        2.14741       -0.75171
H          0.33487        3.83353        0.84418
H         -0.66621        4.08565       -0.40920
H         -3.60873        2.33168        1.06031
H         -4.18205        1.30083       -0.03418
H         -3.72611       -2.30192       -0.39667
H         -3.28842       -1.36633       -1.65051
H         -0.46337       -4.17571       -0.67985
H         -0.23214       -4.07164        0.91607
