27
Coordinates from ORCA-job ./opt_b97-3c_parallel
N          5.11735       -0.27285       -0.49144
C          4.03016        0.03672       -0.32717
C          2.66037        0.38278       -0.11855
C          2.28856        1.70685        0.26665
C          0.95862        1.96493        0.46382
C          0.45859        0.73342        0.12590
C         -0.95277        0.47156       -0.09826
C         -1.79718        1.55399       -0.11260
N         -2.05102        2.62984       -0.05321
N         -3.06588        1.05195       -0.27792
C         -2.96724       -0.32907       -0.37876
N         -3.98882       -0.75531       -0.44171
C         -1.63760       -0.67414       -0.36349
C         -1.35477       -1.43228        0.72885
N         -0.42620       -2.43778        0.77023
C          0.37706       -2.55120       -0.35201
C          1.40097       -1.64906       -0.60259
C          1.46034       -0.26464       -0.16269
H          3.05831        2.46030        0.40919
H          0.64041        2.46418        1.37622
H         -1.09481        2.98313       -0.12451
H         -2.64804        3.42819       -0.27850
H         -4.98091       -0.53225       -0.34198
H         -3.93085       -1.77047       -0.33649
H         -1.31704       -2.06611        1.62847
H          1.00164       -3.39197       -0.69418
H          2.31035       -2.03387       -1.06305
