32
Coordinates from ORCA-job ./opt_b97-3c_parallel
N         -2.86092        2.91206       -1.71956
C         -2.19116        2.19512       -1.13337
C         -1.38368        1.25516       -0.39508
C         -0.85385        1.63741        0.89483
N         -1.17012        2.49692        1.51897
C          0.56718        1.91499        0.87814
C          1.45931        1.10748        0.09277
C          2.83936        1.44218        0.01060
C          3.55186        0.36086       -0.40850
N          4.87200        0.29502       -0.63477
C          2.71026       -0.65811       -0.54807
C          1.43053       -0.28375       -0.24712
C          0.42066       -1.18337        0.25524
C          0.75113       -2.54648        0.52610
N         -0.41084       -3.21027        0.63453
C         -1.48227       -2.43827        0.39297
N         -2.26094       -3.21653        0.47180
C         -1.00084       -1.10680        0.11847
C         -1.75078       -0.08305       -0.45178
N         -2.65354       -0.49650       -0.96004
H         -2.07950        2.86764        1.24667
H         -0.72118        3.22696        2.06981
H          1.02845        2.73858        1.43417
H          3.25001        2.36790        0.40385
H          5.25021       -0.36724       -1.30995
H          5.42931        1.14684       -0.68495
H          3.00425       -1.64839       -0.88838
H          1.63267       -3.19766        0.62652
H         -2.86947       -3.98978        0.74015
H         -2.87255       -2.46620        0.14293
H         -3.33789        0.24834       -0.81556
H         -2.53178       -0.56528       -1.97182
