27
Coordinates from ORCA-job ./opt_b97-3c_parallel
N          4.98804        0.47664        0.74968
C          3.89568        0.18717        0.57417
C          2.51828       -0.13233        0.34204
C          2.19592       -1.42805        0.06200
C          0.84810       -1.31303       -0.15436
C          0.09727       -2.15770       -0.90360
C         -0.39846       -2.90848        0.10666
C         -1.71272       -2.71791        0.62970
C         -2.54432       -1.59775        0.25733
C         -2.20526       -0.29622       -0.11254
N         -3.18014        0.60028       -0.30026
C         -2.60232        1.84774       -0.38467
N         -3.01149        2.86396       -0.50395
N         -1.23936        1.73270       -0.23225
C         -0.94775        0.43174       -0.09964
C          0.34266       -0.05959        0.06852
C          1.43942        0.81302        0.37113
N          1.57808        1.89373        0.57515
H          2.82421       -2.04031       -0.58215
H          0.50632       -2.62902       -1.79536
H          0.10203       -3.82959        0.39505
H         -2.16426       -3.54491        1.16936
H         -3.59849       -1.79360        0.43384
H         -2.56148        3.76908       -0.37213
H         -4.01373        3.02381       -0.41133
H          1.22449        2.83517        0.41754
H          2.59411        1.97594        0.59669
