27
Coordinates from ORCA-job ./opt_b97-3c_parallel
N         -0.31386        3.22822        0.19032
C         -0.05522        2.17987       -0.04469
C          1.25694        1.76432        0.34429
C          1.79634        0.48215       -0.04006
C          3.13395        0.24039       -0.02447
C          3.31211       -1.06218       -0.17386
C          2.16037       -1.70981       -0.27028
C          1.14096       -0.80545       -0.17683
C         -0.24075       -1.18237        0.10597
C         -0.53757       -2.54279        0.43496
C         -1.87057       -2.65867        0.64357
C         -2.42244       -1.47120        0.44458
C         -1.47371       -0.55212        0.08471
C         -1.72304        0.74802       -0.45921
N         -2.70547        1.22109       -0.64268
N         -0.79050        1.52518       -0.87871
H          0.21828        3.62186        0.96355
H         -1.26129        3.07316        0.53015
H          1.93991        2.50649        0.75170
H          3.92020        0.98696        0.05950
H          4.28708       -1.54196       -0.22117
H          2.06442       -2.78107       -0.42500
H          0.19596       -3.33183        0.55363
H         -2.39409       -3.56724        0.93160
H         -3.48508       -1.26071        0.54123
H         -2.59225        0.47153       -1.32250
H         -2.73058        2.09284       -1.16812
