30
Coordinates from ORCA-job ./opt_b97-3c_parallel
N         -2.44103        1.56099       -1.73719
C         -2.54243        2.23871       -0.81992
C         -1.48273        1.70407       -0.01707
C         -0.52991        2.68802        0.15386
N          0.70727        2.57326        0.79631
C          1.56781        1.47004        0.90332
N          2.10199        2.31225        1.39698
C          1.61118        0.27120        0.06135
C          2.79362       -0.27965       -0.38238
N          3.89710       -0.25255       -0.52951
N          2.65296       -1.51832       -0.90415
C          1.30382       -1.87258       -0.77502
N          1.38424       -2.89871       -1.20068
C          0.62584       -0.75550       -0.15598
C         -0.75363       -0.80351        0.28112
N         -1.56408       -1.81358        0.19016
C         -2.68969       -1.80483        0.84431
N         -3.54681       -2.48759        1.00783
C         -2.50559       -0.45054        0.84276
C         -1.32038        0.44390        0.65834
H         -0.62137        3.75619       -0.10943
H          2.16069        2.33025        2.42095
H          2.56555        3.18722        1.12287
H          4.66314       -0.81695       -0.14304
H          4.37436        0.34725       -1.21230
H          2.09836       -3.28885       -1.82627
H          0.73285       -3.68263       -1.09497
H         -3.62788       -3.45825        1.32266
H         -4.51891       -2.17609        0.92702
H         -3.37668        0.20483        0.89392
