29
Coordinates from ORCA-job ./opt_b97-3c_parallel
N         -2.39761        3.15371       -1.16658
C         -2.01347        3.08747       -0.08863
C         -1.03859        2.02605       -0.01279
C          0.28125        2.29282       -0.31206
N          1.16686        2.29633        0.75314
C          2.09341        1.26307        0.81132
N          2.67514        1.97917        1.43157
C          1.96981        0.10320       -0.05510
C          3.04623       -0.65407       -0.45708
N          4.13624       -0.85134       -0.55928
N          2.69129       -1.82236       -1.01689
C          1.29849       -1.87692       -0.95324
C          0.79070       -0.66808       -0.35926
C         -0.63252       -0.48084       -0.03473
C         -1.56372       -1.57674        0.04543
C         -1.30168       -2.97799       -0.02051
N         -1.04210       -4.08795       -0.05391
C         -2.85017       -0.99762        0.34325
N         -3.91276       -1.24210        0.54687
N         -2.71939        0.38505        0.40172
C         -1.41504        0.63460        0.17689
H          0.28595        3.39637       -0.35357
H          3.12397        1.52150        2.23104
H          2.92224        2.96659        1.55867
H          4.86232       -0.17341       -0.80850
H          4.60627       -1.75307       -0.69342
H          1.30863       -2.88280       -1.40605
H         -4.78096       -0.70287        0.59837
H         -4.21381       -2.21538        0.64602
