33
Coordinates from ORCA-job ./opt_b97-3c_parallel
N          4.30797       -2.43947       -0.69206
C          3.41148       -1.78542       -0.41899
C          2.25322       -0.94547       -0.25413
C          2.23101        0.40577        0.04964
N          3.16729        0.97393        0.22162
C          0.85121        0.80829        0.09852
C          0.48358        2.06029        0.73778
N          1.08542        2.77213        1.33449
C         -0.53226        2.93943        0.17341
C         -1.26074        2.59446       -1.01714
C         -1.82118        1.36162       -1.24954
C         -2.22559        0.61514       -0.08784
C         -3.52581        0.26076        0.10389
C         -3.15418       -1.00725        0.46818
N         -3.97531       -1.72641        0.65272
C         -1.93271       -1.60959        0.61780
C         -1.33582       -0.45785        0.20420
C          0.07082       -0.30343       -0.09412
C          0.90124       -1.45738       -0.30534
N          0.66264       -2.52703       -0.46538
H          2.98162        1.95023       -0.00253
H          4.09545        0.75436       -0.13585
H          1.40293        3.66436        1.70782
H          1.71550        2.05787        1.69697
H         -0.53096        4.00516        0.41526
H         -1.56237        3.42546       -1.64671
H         -2.50188        1.34145       -2.09528
H         -4.27347        0.43312       -0.66919
H         -4.96823       -1.54303        0.52175
H         -3.90115       -2.63337        1.10964
H         -1.63833       -2.06767        1.56112
H         -0.29389       -2.87079       -0.40597
H          1.26890       -3.33996       -0.55701
