30
Coordinates from ORCA-job ./opt_b97-3c_parallel
N          1.34493       -4.21099       -0.41974
C          0.92562       -3.23040       -0.00657
C          0.16512       -2.00861       -0.02620
C         -1.26930       -2.17634        0.04787
N         -1.83144       -3.13542        0.10502
C         -1.84116       -0.84864        0.01535
C         -3.27871       -0.78484        0.09977
N         -3.96464       -0.58411        0.99281
C         -0.80895        0.07032       -0.03974
C         -1.09196        1.49392       -0.22679
C         -2.33709        1.95123       -0.78854
N         -3.30499        2.33470       -1.26084
C         -0.18397        2.45664        0.34835
N         -0.39678        3.55407        0.36399
N          0.73961        2.50255        0.95105
C          1.76652        2.15239        0.76712
C          2.38131        1.03478        0.15322
C          3.78718        0.90300        0.02504
C          4.04494       -0.32774       -0.48481
C          2.89942       -0.98123       -0.66089
C          1.83056       -0.21082       -0.27559
C          0.44997       -0.65714       -0.06498
H         -2.77099       -3.29020        0.46617
H         -1.41714       -4.05205       -0.05578
H          0.22727        4.35473        0.44152
H         -1.04516        3.76254       -0.39283
H          2.36266        3.00743        1.12123
H          4.50586        1.64988        0.34720
H          5.02888       -0.69777       -0.76252
H          2.84501       -1.94853       -1.14930
