26
Coordinates from ORCA-job ./opt_b97-3c_parallel
N          4.12897        1.34870        0.39892
C          3.12790        0.85367        0.15406
C          1.89093        0.22818       -0.19347
C          0.98560        1.03225       -0.81709
C         -0.07245        1.61959       -0.18877
C         -0.26557        2.94565        0.05121
C         -1.53514        3.12947        0.39919
C         -2.21811        1.99226        0.41467
C         -1.34510        1.01230        0.06652
C         -1.60199       -0.39902       -0.09973
C         -2.90327       -0.95682       -0.00188
C         -2.77023       -2.29531       -0.16340
C         -1.47991       -2.57261       -0.32829
C         -0.71572       -1.43348       -0.28298
N          0.54208       -1.73188       -0.36167
C          1.65439       -1.17504        0.00260
N          2.08983       -2.11433        0.38228
H          1.06444        1.14541       -1.89617
H          0.49117        3.72280       -0.02802
H         -1.96322        4.09818        0.64442
H         -3.26859        1.87331        0.66902
H         -3.81657       -0.39438        0.16177
H         -3.58181       -3.01859       -0.16448
H         -1.09302       -3.57862       -0.48350
H          1.85664       -2.86125        1.03312
H          2.91723       -1.64638        0.74736
