30
Coordinates from ORCA-job ./opt_b97-3c_parallel
N         -3.09560        2.75963       -1.14354
C         -2.20270        2.11438       -0.84122
C         -1.11867        1.26978       -0.43480
C          0.02985        1.79179        0.23847
N          0.19985        2.48362        1.08210
C          0.91599        1.89607       -0.88353
C          1.95465        0.98382       -0.90639
N          2.76697        1.39946       -1.52877
C          1.98555       -0.19162       -0.05777
C          3.23128       -0.83504        0.19427
C          2.98566       -1.95972        0.90335
C          1.67423       -2.07033        1.06458
C          1.00539       -1.03114        0.45761
C         -0.36885       -1.12817        0.22364
C         -1.02662       -2.31947        0.38436
C         -2.28439       -2.05251       -0.11299
N         -3.25740       -2.55311       -0.26691
N         -2.41990       -0.77427       -0.50078
C         -1.26014       -0.15572       -0.31342
H          1.17179        2.79057        1.12221
H         -0.36921        3.32781        1.13959
H          0.88726        2.77562       -1.53014
H          3.52798        0.73412       -1.65583
H          3.17015        2.32599       -1.66220
H          4.19866       -0.46712       -0.13468
H          3.73827       -2.63355        1.30695
H          1.21333       -2.86606        1.64593
H         -0.54156       -3.26228        0.13516
H         -4.18456       -2.14475       -0.14677
H         -3.41161       -3.52860       -0.52256
