31
Coordinates from ORCA-job ./opt_b97-3c_parallel
N          2.95149        2.96054       -0.55115
C          2.08828        2.23892       -0.35870
C          1.00719        1.33802       -0.06473
C         -0.24520        1.82427        0.46123
N         -0.44141        2.90932        0.59070
N         -1.17310        2.04383       -0.48313
C         -2.09164        1.12060       -0.83318
N         -2.69245        1.83044       -1.43431
C         -2.18197       -0.12463       -0.09746
C         -3.43824       -0.79379        0.01412
N         -4.50574       -0.68496       -0.23044
N         -2.67368       -1.44758        0.50172
C         -1.88499       -2.14226        0.88737
C         -1.17892       -0.98768        0.43815
C          0.20778       -1.01335        0.37022
N          1.30846       -1.68902        0.49709
C          2.54387       -1.98340        0.20898
N          2.81974       -3.04418        0.37626
C          2.46414       -0.63060       -0.05817
C          3.84554       -0.36378       -0.36572
N          4.07892       -0.25396       -1.47993
C          1.19868       -0.09907        0.07111
H          0.27012        3.09863        1.29681
H         -0.87367        3.81337        0.39444
H         -2.73241        2.61443       -2.08808
H         -3.62493        1.41238       -1.45636
H         -5.33986       -0.24790        0.16271
H         -4.67304       -1.69033       -0.18830
H         -2.30356       -3.09017        1.26139
H          2.69640       -4.02286        0.64204
H          3.75381       -2.99502       -0.03627
