27
Coordinates from ORCA-job ./opt_b97-3c_parallel
N         -5.36639        0.49680       -0.27889
C         -4.22900        0.59007       -0.21765
C         -2.80861        0.74720       -0.15959
C         -2.20002        1.96911       -0.14851
C         -0.85476        1.65079       -0.09547
C         -0.39071        3.00018       -0.25852
N          0.03982        4.04072       -0.06156
C         -0.60607        0.29145        0.01066
C          0.74430       -0.30218       -0.00672
C          1.86418        0.55871        0.24672
N          2.14211        1.58285        0.55489
C          2.94528       -0.34623       -0.01159
C          4.34945       -0.04995        0.05404
N          5.47121        0.16748        0.08077
C          2.60105       -1.60173       -0.40282
C          1.23663       -1.57522       -0.32310
C          0.49800       -2.76331       -0.69115
N         -0.77191       -3.20486       -0.39034
C         -1.24459       -2.40295        0.54765
N         -2.29770       -1.63206        0.17902
C         -1.89549       -0.32719       -0.01080
H         -2.64258        2.75631        0.46735
H          1.57473        2.13090        1.19892
H          3.10616        1.88691        0.68064
H          3.16460       -2.47106       -0.07042
H          0.23546       -3.77960       -1.02248
H         -2.13746       -3.04583        0.51427
