29
Coordinates from ORCA-job ./opt_b97-3c_parallel
N          3.87119       -0.46677        1.99947
C          2.95186       -0.77969        1.39988
C          1.78936       -1.11434        0.63975
C          1.49827       -2.45624        0.23787
N          0.57031       -2.14667       -0.27401
C         -0.08736       -1.28015       -0.11851
C         -1.47192       -0.89292       -0.14383
C         -2.40319       -1.82665       -0.50377
N         -2.62273       -2.86913       -0.80995
N         -3.60195       -1.27039       -0.57476
C         -3.28934        0.03391       -0.22226
C         -1.99168        0.34814        0.12296
C         -1.46714        1.49766        0.66042
N         -1.95318        2.15184        1.41597
N         -0.45460        2.39085        0.62466
C          0.69512        2.27056       -0.08955
N          0.69765        3.37317       -0.04878
C          1.18758        1.00787       -0.59811
C          2.25219        0.95265       -1.54679
N          3.08419        0.88164       -2.32357
C          0.81624       -0.18813        0.12339
H          2.11806       -3.33253        0.48583
H         -1.81443       -3.49509       -0.82033
H         -3.40420       -3.43784       -1.14294
H         -4.31929        0.40218       -0.35437
H         -2.33470        1.88930        2.32876
H         -1.97485        3.17737        1.42919
H          1.63505        3.26410       -0.43768
H          0.50965        4.37570       -0.06382
