30
Coordinates from ORCA-job ./opt_b97-3c_parallel
N         -4.31398        2.35667       -0.04515
C         -3.45822        1.60428        0.01559
C         -2.34768        0.69756        0.06724
C         -1.00967        0.93316       -0.13161
C         -0.56884        2.22926       -0.59405
C          0.77126        2.48732       -0.71815
N          1.44703        2.50661        0.48956
C          2.23998        1.41215        0.79795
N          2.59144        2.21391        1.48190
C          2.27623        0.28364       -0.10476
C          3.43468       -0.40392       -0.34005
N          3.00969       -1.60939       -0.69920
C          1.63728       -1.78339       -0.69847
N          1.81226       -2.83595       -1.00263
C          1.09766       -0.51713       -0.30588
C         -0.26023       -0.29692       -0.04036
C         -1.18563       -1.29168        0.22863
C         -0.98640       -2.69433        0.44780
N         -0.75720       -3.80176        0.60704
C         -2.50373       -0.70808        0.32839
N         -3.45188       -1.23838        0.53829
H         -1.31880        2.97917       -0.84996
H          0.49660        3.51944       -0.99176
H          2.81984        1.79370        2.38531
H          2.86320        3.19634        1.58887
H          4.53225       -0.44289       -0.42470
H          2.23208       -3.39378       -1.74813
H          1.16011       -3.47673       -0.53709
H         -4.32165       -0.72340        0.40012
H         -3.71949       -2.16579        0.86732
