31
Coordinates from ORCA-job ./opt_b97-3c_parallel
N          0.48806        3.87636        1.46966
C         -0.24227        3.23784        0.86927
C         -1.14242        2.39090        0.14682
C         -2.36948        2.90963       -0.15182
N         -3.02293        1.83194       -0.56592
C         -2.33245        0.63779       -0.48573
N         -2.76697       -0.60934       -0.91030
C         -2.20022       -1.70616       -0.30925
N         -2.82182       -2.46851       -0.82400
N         -1.45121       -2.58279        0.44684
C         -0.30157       -2.11291        1.06857
N         -0.25376       -3.10464        1.56527
C          0.48990       -1.06105        0.45114
C          1.90853       -1.29044        0.36114
N          2.44387       -2.22600        0.62715
C          2.43721       -0.08138       -0.21648
C          3.83521        0.02586       -0.53807
N          4.94218        0.07548       -0.81322
C          1.40461        0.82436       -0.39696
N          1.66244        1.77764       -0.89670
C          0.16861        0.22556        0.04655
C         -1.01634        0.97005       -0.02642
H         -2.75142        3.94326       -0.12330
H         -3.06046       -3.42578       -0.55274
H         -3.16997       -2.39627       -1.78434
H         -0.56428       -3.73476        2.31139
H          0.75885       -3.03367        1.71098
H          2.60771       -3.21166        0.41650
H          3.36896       -1.79454        0.58647
H          1.73326        2.72896       -0.53040
H          2.46895        1.67289       -1.51599
