28
Coordinates from ORCA-job ./opt_b97-3c_parallel
N          4.79091       -0.85815       -0.18005
C          3.77637       -0.33737       -0.10600
C          2.49802        0.30477       -0.05454
C          2.42222        1.66455       -0.10101
C          1.05582        1.84858       -0.06051
C          0.99973        3.28129       -0.11416
N          0.92327        4.42202       -0.13446
C          0.31096        0.68155       -0.00627
C         -1.08481        0.74454        0.08046
C         -1.72041        2.01085        0.27994
N         -2.63240        1.37020        0.25338
C         -3.38291        0.55054        0.15449
C         -2.13460       -0.12435        0.00373
C         -2.14899       -1.51794       -0.30857
N         -2.89368       -2.31393       -0.48455
N         -1.06445       -2.16972       -0.50164
C          0.02285       -2.57537        0.05105
N          0.02058       -3.66605        0.20983
C          1.20868       -1.78850        0.16795
C          1.23263       -0.34583        0.00011
H          3.11245        2.25852        0.50060
H         -1.94468        3.07748        0.43343
H         -4.41095        0.16114        0.10249
H         -2.98582       -1.58452       -1.18960
H         -2.73737       -3.18575       -0.98748
H          0.70922       -3.73298        0.95652
H         -0.88915       -3.83388        0.63637
H          2.13741       -2.31405        0.37145
