31
Coordinates from ORCA-job ./opt_b97-3c_parallel
N          4.36597        1.81555        0.12492
C          3.54667        1.02211        0.06247
C          2.48663        0.06601       -0.03314
C          2.48226       -1.26721       -0.37691
N          3.28649       -1.96647       -0.66555
C          1.25955       -1.88316       -0.27165
C          0.44628       -0.82588        0.03045
C         -0.97942       -0.96118        0.26018
C         -1.52649       -2.26660        0.44985
N         -1.56486       -3.35661        0.59376
N         -2.42103       -1.60164        0.37106
C         -3.26169       -0.90407        0.12688
C         -2.09384       -0.08967        0.03812
C         -2.26059        1.23501       -0.53442
N         -3.02082        1.92405       -0.94535
N         -1.39541        2.26229       -0.44769
C         -0.22171        2.21142        0.18252
N         -0.19575        3.31091        0.07110
C          0.69234        1.51600        0.89409
C          1.13605        0.39058        0.27667
H          4.23145       -1.58825       -0.61174
H          3.38546       -2.97351       -0.78781
H          0.93953       -2.64451       -0.98364
H         -0.61278       -3.42624        0.94871
H         -2.10291       -4.08734        1.05671
H         -4.32397       -1.18345        0.07220
H         -3.40603        1.16777       -1.51001
H         -3.30426        2.79099       -1.40063
H         -0.87455        4.02713        0.33060
H          0.66453        3.56161        0.55764
H          1.27283        1.98240        1.68872
