27
Coordinates from ORCA-job ./opt_b97-3c_parallel
N         -3.87948       -0.64527       -0.75691
C         -2.83667       -0.98011       -0.43062
C         -1.52770       -1.41890       -0.06143
C         -1.20250       -2.72880        0.10904
C          0.10624       -2.84532        0.28358
C          0.70039       -1.62373        0.18360
N          1.99030       -1.34553        0.62178
C          2.69195       -0.36815       -0.04931
N          3.55314       -0.54640        0.61883
N          2.37937        0.08113       -1.22180
C          1.91104        1.28001       -1.16805
C          0.72115        1.68478       -0.47575
C          0.27078        2.95635       -0.39219
C         -0.90886        2.90014        0.20558
C         -1.29304        1.66373        0.51907
N         -2.37606        1.45695        1.28323
C         -0.29195        0.83037        0.08728
C         -0.32834       -0.62784       -0.02887
H         -1.91230       -3.55389        0.12327
H          0.62902       -3.78588        0.44467
H          4.09153        0.20004        1.05635
H          4.01676       -1.41738        0.87693
H          2.57006        2.02598       -1.63901
H          0.78767        3.85647       -0.71866
H         -1.48745        3.78897        0.45227
H         -2.87147        0.56737        1.25608
H         -3.07412        2.19203        1.39021
