28
Coordinates from ORCA-job ./opt_b97-3c_parallel
N         -4.34318       -1.22541        0.34296
C         -3.24594       -0.97085        0.14619
C         -1.85543       -0.64530       -0.05313
C         -1.46009        0.75785       -0.09881
C         -2.37462        1.77353       -0.07359
C         -1.72386        2.92416       -0.07858
C         -0.41378        2.74832       -0.09122
C         -0.15605        1.40810       -0.09495
C          1.19413        0.87875        0.04015
C          2.34003        1.71061        0.25975
C          3.54239        1.05842        0.38934
C          3.16939       -0.24625        0.17835
N          4.02311       -0.94625        0.17665
C          1.76743       -0.40913       -0.01582
C          1.15031       -1.65090       -0.30823
N          0.13521       -2.03589       -0.50694
C         -0.88841       -1.68702       -0.29061
N         -1.20417       -2.75815       -0.34281
H         -3.45744        1.67492       -0.07798
H         -2.20820        3.89795       -0.08180
H          0.31481        3.55353       -0.12217
H          2.25167        2.78513        0.36423
H          4.22227        1.32936        1.19563
H          3.78683       -1.87804       -0.15719
H          5.03896       -0.90026        0.23410
H          1.70602       -2.59810       -0.37871
H         -0.92885       -3.70334       -0.60354
H         -1.83844       -2.84344        0.44878
