25
Coordinates from ORCA-job ./opt_b97-3c_parallel
N          4.70253        1.40989       -0.07438
C          3.72252        0.82454       -0.10859
C          2.49419        0.09464       -0.10366
C          2.47519       -1.32813        0.06248
C          1.12065       -1.78595        0.04745
C          0.84871       -3.17900        0.20782
N          0.62042       -4.29471        0.30618
C          0.36886       -0.64549       -0.10786
C         -1.07802       -0.61933       -0.11384
C         -1.92052       -1.68689       -0.03275
N         -3.22805       -1.73652        0.06867
C         -2.99962       -0.38093        0.00771
C         -1.92769        0.45034       -0.11818
C         -2.08147        1.78206        0.15016
N         -2.81295        2.53564        0.49495
N         -1.30787        2.87624        0.10521
C         -0.01563        2.72948       -0.22150
N          0.75948        1.71913       -0.44300
C          1.19565        0.52195       -0.23214
H          3.35111       -1.95732        0.18941
H         -1.99970       -2.78559       -0.02949
H         -4.05404       -0.07472        0.09249
H         -2.99220        3.46299        0.87668
H         -2.79866        1.89239        1.28379
H          0.76154        3.49791       -0.35009
