24
Coordinates from ORCA-job ./opt_b97-3c_parallel
N         -3.17610        1.85604        1.61208
C         -2.28065        1.34294        1.11938
C         -1.92425        0.77805        0.23255
C         -1.01838        1.58232       -0.37535
N          0.17844        2.07675       -0.66607
C          1.31082        1.54117       -0.19073
N          2.48071        2.24718       -0.17753
C          3.42248        1.36544        0.31561
C          2.93898        0.11526        0.60060
C          1.61561        0.21050        0.25962
C          0.78297       -0.98447        0.10324
C          1.44174       -2.24714        0.23228
N          0.41317       -2.47165       -0.13437
C         -0.63251       -2.66340       -0.47960
C         -0.50655       -1.25546       -0.26796
C         -1.70296       -0.44126       -0.33920
N         -2.67778       -0.82509       -0.70911
H         -1.26513        2.43803       -1.02328
H          4.46834        1.69669        0.41281
H          3.53792       -0.75697        0.34657
H          2.04938       -3.15686        0.35485
H         -1.18660       -3.58651       -0.71332
H         -3.67464       -0.63751       -0.60431
H         -2.60349       -1.73174       -1.16833
