29
Coordinates from ORCA-job ./opt_b97-3c_parallel
N         -4.65563        1.07535        0.38949
C         -3.63514        0.56508        0.32351
C         -2.37961       -0.11003        0.22648
C         -2.31120       -1.53807        0.26920
C         -0.95681       -1.95417        0.07490
C         -0.66680       -3.35308        0.06062
N         -0.46551       -4.47904        0.05350
C         -0.23512       -0.78634       -0.03117
C          1.19203       -0.75671       -0.31251
C          2.00528       -1.75713       -0.74899
C          3.23465       -1.26123       -0.81620
C          3.28692        0.00834       -0.42940
C          2.02983        0.38462       -0.05953
C          1.83526        1.50709        0.71114
N          2.60450        1.58480        1.81154
C          0.95665        2.45377        0.37861
C          0.16462        2.32281       -0.72570
N         -0.41004        3.08072       -1.28067
N         -0.76518        1.58509       -0.20839
C         -1.10424        0.35928        0.02842
H         -3.16137       -2.20319        0.39112
H          1.71507       -2.76387       -1.03512
H          4.09812       -1.82786       -1.15525
H          4.17899        0.62988       -0.40065
H          2.83896        2.49487        2.20341
H          3.42510        0.98834        1.89759
H          0.84579        3.33091        1.01512
H         -1.38440        3.36996       -1.33684
H          0.14279        3.92528       -1.14828
