26
Coordinates from ORCA-job ./opt_b97-3c_parallel
N          4.76955       -1.37632        0.03267
C          3.77897       -0.81093       -0.01761
C          2.51609       -0.13663       -0.07161
C          1.30686       -0.90668       -0.07008
C          0.20051        0.00361       -0.12609
C         -1.18881       -0.45783       -0.11219
C         -1.68836       -1.79735       -0.09111
C         -0.98837       -3.04062       -0.05635
N         -0.46397       -4.05395       -0.00891
C         -3.05025       -1.87371       -0.07188
N         -3.42347       -0.60049       -0.04587
C         -2.38479        0.31221       -0.06502
N         -2.46176        1.59940       -0.00071
C         -2.00043        2.63782        0.61749
C         -1.18939        2.86378       -0.45215
C          0.13247        2.58089       -0.29078
C          0.74306        1.27463       -0.17368
C          2.17693        1.20049       -0.13382
N          2.95133        1.98872       -0.15976
H          1.29007       -1.98522       -0.02090
H         -3.74187       -2.73077       -0.06505
H         -2.66387        3.33851        1.14679
H         -1.47451        3.61831       -1.18497
H          0.80371        3.43512       -0.30062
H          3.16786        2.64167       -0.91142
H          3.84512        1.71543        0.24838
