27
Coordinates from ORCA-job ./opt_b97-3c_parallel
N          4.56907       -0.28523        1.69693
C          3.53702       -0.13441        1.22935
C          2.25881        0.08657        0.62275
C          1.59651        1.34427        0.77539
C          0.40450        1.66686        0.02882
C          0.07873        2.97297       -0.19246
N         -1.15394        2.95192       -0.67585
C         -1.68821        1.68033       -0.74717
C         -0.68915        0.78408       -0.28439
C         -0.99914       -0.61045        0.03621
C         -2.34365       -1.12925        0.06802
C         -3.58730       -0.45836       -0.16369
N         -4.59708        0.05005       -0.33171
C         -2.28956       -2.41419        0.50113
C         -1.02518       -2.73040        0.73173
C         -0.21184       -1.68248        0.41370
C          1.20437       -1.74590        0.25221
C          1.95305       -0.79807       -0.35968
N          2.43960       -1.20954       -1.54129
H          2.13929        2.14477        1.26971
H          0.28425        4.05309       -0.22954
H         -2.59558        2.18709       -1.11151
H         -3.14449       -3.06954        0.65307
H         -0.68306       -3.69864        1.09011
H          1.68721       -2.67764        0.53543
H          2.31514       -2.17862       -1.82861
H          3.37635       -0.92629       -1.82417
