29
Coordinates from ORCA-job ./opt_b97-3c_parallel
N         -4.26635        1.83798       -0.48119
C         -3.42685        1.06988       -0.38323
C         -2.32813        0.15766       -0.25860
C         -2.55767       -1.23722       -0.03876
N         -2.94202       -2.25753        0.12498
N         -1.44088       -1.26545       -0.06935
C         -0.37791       -0.93019       -0.09040
C          1.05644       -1.08106       -0.07024
C          1.56017       -2.35055       -0.01572
N          1.40669       -3.44767        0.02287
N          2.88329       -2.32681       -0.04382
C          3.11002       -0.96112       -0.11444
C          2.02513       -0.11047       -0.09848
C          2.15296        1.21026        0.24224
N          2.94689        1.82462        0.70546
N          1.54164        2.45609        0.29332
C          0.22109        2.46785       -0.13391
N         -0.26191        3.45912       -0.15140
N         -0.58498        1.52110       -0.49721
C         -0.96846        0.29723       -0.28741
H         -3.22460       -3.23709        0.11020
H         -3.79433       -1.72285        0.29080
H          2.05095       -4.22081       -0.15772
H          0.50073       -3.89188        0.18437
H          4.20545       -0.84614       -0.14538
H          3.55784        2.61150        0.47995
H          3.22098        1.52240        1.64068
H          0.31138        4.27592        0.06406
H         -1.14309        3.83320       -0.50825
