27
Coordinates from ORCA-job ./opt_b97-3c_parallel
N         -4.66724       -1.05023       -0.93292
C         -3.65652       -0.60465       -0.64199
C         -2.40836       -0.02322       -0.24652
C         -2.32205        1.31112        0.23726
N         -3.01998        2.14489        0.43835
C         -1.04821        1.70908        0.52421
C         -0.31223        0.57302        0.27148
C          1.14448        0.67069        0.20722
C          1.80093        1.86897        0.14480
N          3.07009        1.55265       -0.10300
C          3.33975        0.19476       -0.14521
N          4.43464        0.17830       -0.28731
C          2.07771       -0.40091        0.09527
C          1.95474       -1.78992        0.43340
C          0.88143       -2.27302        1.10911
C          0.14794       -2.38751       -0.02302
N         -0.84705       -1.70203       -0.66772
C         -1.11673       -0.47160       -0.19100
H         -3.30585        3.11497        0.31643
H         -3.87648        1.59940        0.52628
H         -0.69090        2.69299        0.21898
H          1.71239        2.96626        0.16221
H          4.87743       -0.73330       -0.39809
H          5.19074        0.86239       -0.28554
H          2.84692       -2.40212        0.33500
H          0.98172       -3.11480        1.79109
H         -0.18453       -3.13706       -0.75846
