27
Coordinates from ORCA-job ./opt_b97-3c_parallel
N          3.26037       -2.49895        1.00607
C          2.20499       -2.15451        0.73137
C          1.48530       -1.45802        0.25663
C          0.50120       -2.29891       -0.17926
N         -0.61802       -1.96468       -0.74309
C         -1.73008       -1.32160       -0.57093
N         -2.33147       -2.11620       -1.03941
C         -1.78867       -0.03597        0.07116
C         -3.06028        0.58880        0.27953
N         -4.15764        0.61046        0.20038
N         -2.43993        1.38123        0.72488
C         -1.41663        1.74611        0.89756
C         -0.59286        0.63216        0.51642
C          0.77453        0.90940        0.15555
N          1.34178        2.13185       -0.10507
C          2.67238        1.88640       -0.39208
N          3.47443        2.60003       -0.64011
N          2.91220        0.52262       -0.31476
C          1.74368       -0.12928        0.03755
H         -0.02982       -3.21772        0.11794
H         -3.05192       -1.43805       -1.28204
H         -2.60227       -2.99686       -1.47432
H         -4.37408       -0.37856        0.30937
H         -4.87993        1.12540        0.70070
H         -1.56899        2.83303        0.80760
H          3.42431        3.61694       -0.58609
H          4.46347        2.36536       -0.71941
