29
Coordinates from ORCA-job ./opt_b97-3c_parallel
N         -1.13216       -3.43445        0.07192
C         -0.92612       -2.34638        0.00555
C          0.42676       -2.06078        0.09389
C          1.16865       -0.90026        0.02612
C          2.58627       -1.08193        0.06153
C          3.22210        0.10822       -0.00931
N          4.53568        0.37534       -0.05039
C          2.26683        1.02148       -0.06244
C          1.01060        0.46583       -0.04298
C         -0.20701        1.23032       -0.03590
C         -0.04956        2.65101        0.02652
N         -1.15760        2.62773       -0.01833
C         -2.18299        2.21268       -0.09879
C         -1.53212        0.92959       -0.12119
C         -2.32973       -0.20143       -0.24708
N         -3.42710       -0.08580       -0.39515
C         -2.13462       -1.57792       -0.20797
H         -0.48926       -4.02930        0.59065
H         -2.06624       -3.65274        0.41268
H          1.06417       -2.93964        0.21105
H          3.07049       -2.05225        0.12484
H          5.20878       -0.28972        0.32530
H          4.87634        1.31619        0.13487
H          2.46965        2.08673       -0.14751
H          0.50421        3.59935        0.08767
H         -3.15185        2.73354       -0.13073
H         -3.24831        0.57480       -1.14969
H         -4.13679       -0.73029       -0.73839
H         -3.01275       -2.23267       -0.30789
