32
Coordinates from ORCA-job ./opt_b97-3c_parallel
N         -3.21224        2.31187        1.83181
C         -2.13594        2.02843        1.57130
C         -1.68603        1.73232        0.60286
C         -0.40249        2.05342        0.29947
C          0.62855        1.07771        0.04228
C          1.99256        1.48644       -0.11096
N          2.38085        2.52118       -0.13796
C          2.74749        0.25963       -0.17480
C          4.17454        0.19696       -0.32821
N          5.30881        0.11296       -0.44568
C          1.87138       -0.88481       -0.03413
N          2.26017       -1.92121       -0.07049
C          0.53629       -0.35522        0.07743
C         -0.61048       -1.24451        0.25676
C         -0.47561       -2.54536        0.65151
C         -1.67717       -3.15083        0.38669
N         -1.97126       -4.20844        0.53667
N         -2.54417       -2.24920       -0.21618
C         -1.93300       -1.01664       -0.26369
N         -2.39654        0.06145       -1.02273
C         -2.10832        1.35720       -0.64227
N         -2.68666        1.78013       -1.49139
H         -0.10595        3.10024        0.28438
H          2.25756        3.52593       -0.02130
H          3.37104        2.34256        0.03140
H          3.16748       -1.78936        0.38137
H          2.44928       -2.50146       -0.88856
H          0.10289       -2.80268        1.53846
H         -2.88752       -4.65749        0.60338
H         -1.30096       -4.96161        0.70828
H         -3.08789        1.76545       -2.43343
H         -2.89066        2.71801       -1.13985
