26
Coordinates from ORCA-job ./opt_b97-3c_parallel
N          4.94302       -0.38723       -0.65228
C          3.81354       -0.44643       -0.49150
C          2.39818       -0.49770       -0.25504
C          1.82620       -1.77078        0.04945
C          0.43425       -1.56020        0.22573
C         -0.37142       -2.67703        0.62913
C         -1.66670       -2.55267        1.00744
C         -2.28166       -2.36214       -0.18750
N         -2.77371       -1.25000       -0.73627
C         -2.42087       -0.01495       -0.33810
N         -3.29825        1.03806       -0.47836
C         -2.64191        2.17906       -0.06870
C         -1.28873        1.86896        0.26862
C         -0.40616        2.83435        0.84475
N          0.26400        3.62148        1.32978
C         -1.11005        0.45354        0.05624
C          0.11574       -0.22964        0.07415
C          1.36052        0.43019       -0.25968
N          1.73051        1.41888       -0.58624
H          2.35987       -2.71240        0.14304
H          0.12674       -3.63883        0.71553
H         -2.09123       -3.23091        1.74424
H         -2.85833       -3.07292       -0.79933
H         -3.01926        3.21011        0.01878
H          1.90668        1.74418       -1.53639
H          2.52428        1.73453       -0.02800
