28
Coordinates from ORCA-job ./opt_b97-3c_parallel
N          3.89059        2.20450        0.20445
C          3.01903        1.46590        0.17046
C          1.94431        0.50854        0.10420
C          0.57637        0.67115        0.19963
N          0.22398        1.91025        0.34125
C         -0.73741        2.67127       -0.07187
N         -0.24636        3.48847       -0.62106
C         -2.10095        2.34957        0.21724
C         -2.40260        1.24949        0.95960
C         -2.46780        0.00073        0.41284
C         -3.66488       -0.75396        0.24145
N         -2.88715       -1.49142       -0.07017
C         -1.95477       -2.06407       -0.28791
C         -1.40847       -0.79593        0.07914
C         -0.03387       -0.55241        0.05777
C          0.93566       -1.50926       -0.14156
C          0.90800       -2.93304       -0.34288
N          0.87759       -4.06500       -0.18863
C          2.17924       -0.90266       -0.10859
N          3.20141       -1.32577       -0.21777
H         -0.93768        4.22868       -0.72000
H          0.61601        3.82598       -1.04316
H         -2.87648        3.01672       -0.14569
H         -2.52932        1.35919        2.03374
H         -4.72955       -0.54747        0.42613
H         -2.04815       -3.11012       -0.61692
H          4.06248       -0.89742        0.11767
H          3.31471       -2.33382       -0.12705
