29
Coordinates from ORCA-job ./opt_b97-3c_parallel
N         -4.59050        1.58016        0.50018
C         -3.53148        1.16319        0.39307
C         -2.20593        0.62165        0.22383
C         -1.97400       -0.80083        0.06484
N         -2.78724       -1.55362        0.06065
C         -0.54534       -0.91947       -0.08250
C          0.08002       -2.15329       -0.50073
N         -0.44851       -3.02952       -0.92482
C          1.35615       -2.60328       -0.16197
C          2.23837       -2.04675        0.83928
C          2.65837       -0.74616        1.04932
C          2.40204        0.39168        0.21174
N          3.31611        1.41610        0.28624
C          2.88419        2.46655       -0.49073
N          1.79459        1.82659       -0.76998
C          1.31386        0.64184       -0.57246
C          0.01604        0.31650       -0.05578
C         -1.00934        1.30940        0.10095
N         -0.99743        2.41717        0.10006
H         -3.70137       -1.59428        0.50692
H         -2.32434       -2.44349        0.23990
H         -1.05684       -2.50086       -1.54750
H         -0.24443       -3.91195       -1.39152
H          1.61473       -3.64473       -0.37227
H          2.85021       -2.79058        1.34062
H          3.49152       -0.61641        1.73415
H          3.45869        3.39932       -0.59069
H         -0.16719        2.74913       -0.38897
H         -1.73823        3.09410       -0.07467
