31
Coordinates from ORCA-job ./opt_b97-3c_parallel
N         -4.82887       -1.21977        0.52089
C         -3.69314       -1.25175        0.42513
C         -2.26377       -1.26653        0.35078
C         -1.57505       -2.49913        0.49510
C         -0.21697       -2.43920        0.38053
C         -0.00490       -1.08763        0.24526
C          1.32462       -0.59746       -0.08901
C          2.33322       -1.38766       -0.57836
N          2.60299       -2.38440       -0.97981
N          3.53606       -0.77742       -0.62582
C          3.35406        0.50549       -0.10055
N          4.28444        1.09994       -0.01609
C          1.96588        0.63362        0.23021
C          1.45481        1.75504        0.94954
C          0.13012        1.88014        1.20518
C         -0.68329        2.03055        0.11987
N         -0.66109        3.12700       -0.06201
C         -1.48117        0.96134       -0.25020
C         -2.65386        1.34452       -0.99300
N         -2.61749        1.12442       -2.11413
C         -1.21409       -0.40061        0.19586
H         -2.12247       -3.42260        0.66076
H          0.40726       -3.04366        1.03621
H          3.25240       -2.97232       -1.50554
H          1.68294       -2.80233       -1.13093
H          4.12564        2.04408        0.33988
H          5.29958        0.99915       -0.06232
H          2.13571        2.56330        1.19797
H         -0.22154        2.12775        2.20770
H         -1.50580        3.17371       -0.63160
H         -0.43557        4.09200        0.17743
