29
Coordinates from ORCA-job ./opt_b97-3c_parallel
N         -3.34528       -3.72694       -0.95190
C         -2.78485       -2.81701       -0.54885
C         -2.13047       -1.64810       -0.04536
C         -1.15222       -1.67829        0.98862
N          0.06716       -2.09416        0.55630
C          0.91147       -1.05178        0.21089
C          2.24798       -1.29324        0.00078
C          2.87758       -2.58345       -0.01994
N          3.50755       -3.38191       -0.54120
C          2.88837       -0.01220       -0.14394
N          3.97478        0.10794       -0.32635
C          1.94088        0.98567       -0.01338
C          2.22561        2.38650       -0.14583
N          2.40806        3.50931       -0.25150
C          0.64800        0.36894        0.19505
C         -0.61834        1.11990        0.28777
C         -0.59261        2.55007        0.45641
N         -1.82725        3.08989        0.34028
C         -2.66052        2.01908        0.08600
N         -3.64151        2.51473       -0.03240
C         -1.94571        0.79349        0.08414
C         -2.66662       -0.40911       -0.27288
H         -0.95399       -2.75472        1.11948
H          4.60727        0.89481       -0.46316
H          4.51866       -0.73537       -0.50783
H         -0.27318        3.59388        0.59996
H         -4.44681        1.89136        0.01946
H         -4.02349        3.45557       -0.13238
H         -3.65379       -0.32182       -0.71869
