29
Coordinates from ORCA-job ./opt_b97-3c_parallel
N         -5.37390        0.21196       -0.66801
C         -4.26334        0.44136       -0.52783
C         -2.87991        0.76981       -0.33501
C         -2.44093        2.04653       -0.19322
C         -1.13252        2.03298       -0.02029
C         -0.68979        0.74248       -0.06984
C          0.70574        0.31044       -0.09150
C          1.77942        1.25037       -0.03268
N          1.92558        2.33447        0.13395
C          2.89840        0.38287       -0.29262
C          4.26990        0.79457       -0.34320
N          5.36662        1.11989       -0.34992
C          2.66399       -0.93747       -0.56471
C          1.31888       -0.98157       -0.31669
C          0.62536       -2.24595       -0.22280
N          1.02285       -3.25161       -0.46487
C         -0.48555       -2.49415        0.53728
C         -1.75565       -2.14055        0.19447
N         -1.98054       -1.24888       -0.41134
C         -1.78466       -0.16996       -0.28450
H         -3.06189        2.93828       -0.24194
H         -0.52657        2.92697        0.08998
H          1.29202        2.47429        0.91869
H          2.84170        2.66571        0.43101
H          3.32780       -1.71183       -0.18451
H          1.45989       -2.88328       -1.30818
H          0.51045       -4.08593       -0.74636
H         -0.34641       -2.98597        1.50243
H         -2.27450       -2.24574        1.16037
