24
Coordinates from ORCA-job ./opt_b97-3c_parallel
N          3.88666        0.94458        0.00521
C          2.81958        0.66293        0.01155
C          1.58481        1.35317       -0.17574
C          0.56542        0.36932       -0.04117
C         -0.82277        0.82017       -0.03938
C         -1.21406        2.19670        0.02167
C         -2.57171        2.28500        0.09263
C         -3.09795        1.06563        0.08535
C         -2.09294        0.15456       -0.01728
C         -2.26259       -1.22669       -0.32871
N         -1.29270       -1.95393       -0.75049
C         -0.57892       -2.54082        0.14224
C          0.71750       -2.08469        0.53017
C          1.21655       -0.82691        0.23018
N          2.55185       -0.66860        0.29125
H          4.64012        0.27653       -0.15457
H          4.29624        1.87002       -0.11976
H          1.47201        2.41367       -0.37321
H         -0.52969        3.03449        0.08560
H         -3.13753        3.21267        0.14504
H         -4.16101        0.83710        0.11929
H         -3.26774       -1.66818       -0.41016
H         -0.78491       -3.59085        0.39892
H          1.36207       -2.84364        0.96696
