27
Coordinates from ORCA-job ./opt_b97-3c_parallel
N         -4.57968       -0.77257        0.26069
C         -3.44521       -0.67839        0.15805
C         -2.02509       -0.58569       -0.00579
C         -1.62724        0.33887       -0.91271
C         -1.25864        1.39566       -0.14546
C         -1.97457        2.58429        0.18277
N         -0.94130        2.82910        0.54075
C          0.16005        2.93478        0.71810
C          0.01705        1.59854        0.23986
C          1.17865        0.76669        0.02003
C          2.42470        1.31705        0.01856
C          3.01108        0.09554       -0.16721
N          4.11322        0.10046       -0.07758
C          2.45032       -1.14591       -0.29013
C          1.18473       -0.67364       -0.09655
C          0.21373       -1.61283        0.28229
C          0.53246       -2.99171        0.54497
N          0.80450       -4.09040        0.38112
C         -1.15519       -1.58106        0.53955
H         -2.15265        0.48388       -1.85450
H         -2.84242        3.26001        0.21043
H          0.91501        3.65066        1.07658
H          2.65574        2.15583       -0.63608
H          4.68552       -0.74138       -0.05082
H          4.74567        0.88168       -0.24104
H          2.68123       -1.78901       -1.13778
H         -1.68266       -2.40107        1.02974
