29
Coordinates from ORCA-job ./opt_b97-3c_parallel
N         -4.43094        2.01763       -0.84187
C         -3.48517        1.43777       -0.56310
C         -2.28393        0.74486       -0.17198
C         -2.30406        0.09165        1.11217
C         -1.82629       -1.25609        1.25676
C         -1.24405       -1.97183        0.15335
N         -1.37565       -3.26927        0.07759
C         -0.31878       -3.58030       -0.60809
C          0.48309       -2.61005       -0.99573
C         -0.07790       -1.48068       -0.52309
C          0.63019       -0.33141       -0.00111
C          2.05549       -0.39012        0.12470
N          2.85539       -1.15610        0.11759
C          2.33866        1.00633        0.23214
C          3.64919        1.58029        0.33414
N          4.69983        2.02719        0.38496
C          1.26466        1.83814        0.13290
C          0.19906        0.98164       -0.01703
C         -1.08421        1.31256       -0.61215
N         -0.97141        2.21402       -1.25108
H         -3.13896        0.31367        1.77138
H         -2.30903       -1.83826        2.03351
H         -0.23293       -4.66291       -0.78468
H          1.39227       -2.70605       -1.58353
H          2.72523       -2.14360        0.32595
H          3.84196       -0.94693        0.25994
H          1.18157        2.72744        0.75331
H         -0.17201        2.74592       -1.59007
H         -1.73536        2.87623       -1.12395
