26
Coordinates from ORCA-job ./opt_b97-3c_parallel
N          5.07813        0.40403       -0.21675
C          4.00297        0.01977       -0.17382
C          2.64958       -0.42784       -0.09558
C          2.32042       -1.79741        0.13817
C          0.99454       -2.13252        0.19016
C          0.48647       -0.87527       -0.01888
C         -0.93058       -0.54092       -0.06997
C         -1.81894       -1.58239       -0.07576
N         -2.11759       -2.64927       -0.07280
N         -3.07396       -1.02208       -0.12347
C         -2.92414        0.35814       -0.14546
N         -3.98852        0.67122       -0.17774
C         -1.58346        0.66227       -0.12292
C         -1.41676        1.93507        0.34091
N         -0.46012        2.86429        0.43351
C          0.77001        2.55529       -0.00082
N          1.18279        1.42475       -0.47574
C          1.44022        0.18735       -0.20954
H          3.11634       -2.52411        0.27499
H          0.63622       -2.75199        1.00989
H         -2.80136       -3.40846       -0.08012
H         -1.22740       -3.08959       -0.31208
H         -4.00473        1.67903       -0.34740
H         -4.95797        0.42233        0.02751
H         -1.71231        2.89900        0.78387
H          1.66784        3.19379       -0.01937
