30
Coordinates from ORCA-job ./opt_b97-3c_parallel
N          3.89170       -0.58385       -1.58352
C          2.80000       -0.46036       -1.26975
C          1.59065       -0.47506       -0.48460
C          1.15909       -1.70971       -0.01712
N          1.62626       -2.70687       -0.16321
C          0.06859       -1.92679        0.91753
C         -1.16273       -1.28500        0.80031
N         -1.89505       -1.92427        1.33404
C         -1.59457       -0.26248       -0.03718
C         -2.89780       -0.04609       -0.45756
N         -3.90130       -0.51116       -0.44329
C         -2.96462        1.19890       -1.01829
C         -1.78272        1.78838       -0.96151
C         -0.88834        0.93066       -0.40608
C          0.22754        1.35523        0.39504
N          0.43542        2.62009        0.67747
C          1.71052        2.72130        0.82177
C          2.36623        1.60199        0.66299
C          1.42999        0.66659        0.38431
H          2.58344       -2.77029       -0.50647
H          1.17980       -3.60073       -0.35957
H          0.12416       -2.85597        1.50257
H         -2.69254       -1.30433        1.47028
H         -2.10488       -2.78789        1.83076
H         -4.68398       -0.57170       -1.09205
H         -3.44999       -1.42468       -0.43847
H         -3.85924        1.67547       -1.42193
H         -1.56179        2.79281       -1.31414
H          2.15780        3.69793        1.05997
H          3.44191        1.45938        0.74002
