28
Coordinates from ORCA-job ./opt_b97-3c_parallel
N          2.88223       -1.84061        1.51853
C          2.58644       -2.28034        0.50482
C          1.54031       -1.44350       -0.00903
C          0.69585       -2.49013       -0.32122
N         -0.66189       -2.54695       -0.64618
C         -1.72366       -1.64221       -0.53680
N         -2.29074       -2.53873       -0.86366
C         -1.84247       -0.29122       -0.00810
C         -3.15133        0.24955        0.20601
N         -2.98980        1.53889        0.56415
C         -1.70730        1.94425        0.59638
N         -1.99381        2.97842        0.88179
C         -0.93140        0.78586        0.23146
C          0.48739        0.83595        0.00666
N          1.14219        2.04953       -0.12681
C          2.43880        1.87141       -0.60513
N          3.18451        2.66936       -0.78935
C          2.49054        0.50697       -0.67614
C          1.37804       -0.12211       -0.31133
H          0.54899       -3.58315       -0.35596
H         -2.62425       -2.73957       -1.81159
H         -2.62314       -3.33654       -0.31196
H         -4.25258        0.20669        0.22761
H         -1.68725        3.88854        0.52809
H         -2.67168        3.22170        1.61110
H          4.17948        2.47722       -0.64824
H          3.16251        3.63610       -1.12357
H          3.43017       -0.01201       -0.87256
