26
Coordinates from ORCA-job ./opt_b97-3c_parallel
N          4.67267        0.58173       -0.37482
C          3.57274        0.89170       -0.39493
C          2.36513        0.14508       -0.18812
C          2.39678       -1.21985       -0.04119
N          3.02658       -2.13035        0.00144
N          1.09450       -1.63667        0.07981
C          0.33646       -0.47964        0.00516
C         -1.11091       -0.60788        0.03584
C         -1.74879       -1.88272        0.13892
N         -3.07135       -1.65198        0.06667
C         -3.38659       -0.35223       -0.07496
N         -4.49172       -0.34980       -0.11967
C         -2.15196        0.38081       -0.08946
C         -2.17563        1.76443       -0.23357
C         -1.14620        2.68059       -0.13411
C          0.16067        2.28626        0.28179
N          0.81004        1.45248        0.58542
C          1.09412        0.65764       -0.12491
H          3.23075       -3.12492        0.11554
H          3.94161       -1.67916       -0.08538
H         -1.71671       -2.97927        0.23462
H         -4.95859        0.55401       -0.02800
H         -5.24692       -1.03361       -0.19269
H         -3.14939        2.20737       -0.42595
H         -1.32395        3.74109       -0.29593
H          0.68172        3.25776        0.30574
