31
Coordinates from ORCA-job ./opt_b97-3c_parallel
N          4.57077        1.46300       -0.65525
C          4.06864        0.78997        0.12170
C          2.89553       -0.02822        0.01625
C          1.73157        0.75118        0.34241
C          0.58816       -0.10500        0.18384
C         -0.76432        0.45124        0.11138
C         -1.05267        1.77131        0.39514
C         -0.45472        2.92439        0.99244
N         -0.01584        3.87167        1.45504
C         -2.38113        1.96918       -0.12789
N         -3.23562        2.65222       -0.29522
N         -2.84882        0.80287       -0.70550
C         -1.84896       -0.12153       -0.50983
C         -2.11889       -1.49171       -0.83523
C         -1.88991       -2.44824        0.10589
N         -3.00853       -2.79646        0.76201
C         -0.69544       -2.95426        0.36225
C          0.41457       -2.60918       -0.34198
C          1.07137       -1.33944       -0.18906
C          2.49841       -1.30651       -0.31136
N          3.29428       -2.03173       -0.55735
H          1.75483        1.80942        0.56485
H         -4.24931        2.68241       -0.40333
H         -2.95280        3.59510       -0.02489
H         -2.97763       -1.64352       -1.48482
H         -3.90950       -2.75773        0.28735
H         -3.01294       -3.64412        1.32936
H         -0.59413       -3.70804        1.14136
H          1.03628       -3.42126       -0.70678
H          4.26078       -1.73526       -0.42621
H          3.31864       -3.04069       -0.69534
