29
Coordinates from ORCA-job ./opt_b97-3c_parallel
N         -5.07797       -1.15943        0.40642
C         -3.95991       -0.94716        0.30199
C         -2.55904       -0.66153        0.20958
C         -1.75751       -1.59586        0.77085
C         -1.29724       -2.34235       -0.26333
C          0.02152       -2.20725       -0.61496
C          0.82986       -1.07415       -0.19943
C          2.26174       -1.23922       -0.15486
N          2.79795       -2.19448       -0.33501
C          2.74924        0.01208        0.18306
C          4.17531        0.17056        0.34240
N          5.30315        0.27645        0.49588
C          1.72114        0.93047        0.29228
N          2.04014        1.96683        0.52302
C          0.53966        0.25928        0.05248
C         -0.70606        1.01388       -0.11472
N         -0.72755        2.39239       -0.27011
C         -1.98312        2.77821       -0.49059
C         -2.78246        1.71538       -0.48645
C         -2.06133        0.60615       -0.22921
H         -1.98958       -2.04678        1.73338
H         -1.85481       -3.21743       -0.58443
H          0.49921       -3.04386       -1.11600
H          2.34156       -2.93489        0.19399
H          3.74734       -2.11453        0.02494
H          1.25615        2.49967        0.14957
H          2.87407        2.53592        0.39045
H         -2.16693        3.85200       -0.64523
H         -3.85746        1.74613       -0.64685
