34
Coordinates from ORCA-job ./opt_b97-3c_parallel
N         -3.93216        1.83409        1.28127
C         -2.85787        1.47609        1.11164
C         -2.20024        0.80099        0.51352
C         -1.79699        1.52330       -0.59060
N         -2.19535        1.96217       -1.54078
N         -0.68085        2.11756       -1.12956
C          0.51298        1.85303       -0.48030
C          1.52283        2.77374       -0.47160
C          2.55876        2.06450        0.08673
N          3.45813        2.64845        0.34981
C          2.31949        0.71497        0.22462
C          3.18460       -0.27324        0.79192
N          3.82776       -1.10875        1.22960
C          0.95583        0.52176       -0.17239
C          0.26716       -0.77127       -0.30173
C          1.02278       -1.90695       -0.48399
N          1.85543       -2.63141       -0.63846
N          0.27754       -3.00939       -0.48547
C         -1.01097       -2.53281       -0.27478
N         -1.60106       -3.47318       -0.33936
C         -1.06416       -1.14752       -0.21073
C         -1.97138       -0.52375        0.56624
N         -2.73659       -1.26907        1.39999
H         -3.15826        2.08608       -1.21248
H         -2.15092        2.53655       -2.38749
H          1.33788        3.82065       -0.22882
H          4.27431        2.18600        0.75335
H          3.63910        3.64852        0.44822
H          2.16229       -3.47771       -1.12786
H          2.72924       -2.25276       -0.25846
H         -1.61758       -4.46752       -0.58303
H         -2.52086       -3.30225        0.07659
H         -2.29569       -1.85075        2.11402
H         -3.53868       -0.83442        1.86272
