32
Coordinates from ORCA-job ./opt_b97-3c_parallel
N          5.48100        0.30219        1.18537
C          4.38463        0.36154        0.87118
C          3.02585        0.46053        0.44595
C          2.50061        1.53646       -0.21387
C          1.19738        1.12614       -0.38021
C          0.32113        1.65618       -1.38038
N          0.47232        2.49935       -2.08080
N         -0.61834        2.43762       -0.84043
C         -1.45070        2.10651        0.16914
N         -1.66721        3.17729        0.34205
C         -2.09008        0.81371        0.34871
C         -3.39441        0.87063        0.94334
N         -4.42969        0.95416        1.41841
C         -1.59797       -0.46358       -0.16805
C         -2.42983       -1.55073       -0.28690
C         -1.59529       -2.63537       -0.29571
N         -2.13589       -3.58930       -0.42597
C         -0.26915       -2.30413       -0.17426
C          0.84068       -3.20928       -0.22802
N          1.73939       -3.90987       -0.29984
C         -0.21516       -0.87250       -0.09743
C          0.94502       -0.13457        0.08915
C          2.10182       -0.59715        0.64229
H          2.73865        2.55100        0.09953
H          1.37822        2.21489       -2.45357
H          0.16669        3.28326       -2.65793
H         -1.72011        4.18590        0.20740
H         -2.42272        2.94190        0.98617
H         -3.42235       -1.59850        0.16256
H         -1.45528       -4.34652       -0.37040
H         -3.05453       -4.02413       -0.34809
H          2.32910       -1.53835        1.13193
