29
Coordinates from ORCA-job ./opt_b97-3c_parallel
N         -5.46902        0.11676       -0.47671
C         -4.33368        0.07346       -0.36015
C         -2.91480       -0.04358       -0.20407
C         -2.62424       -1.37706       -0.16707
N         -2.82953       -2.46758       -0.19648
N         -1.32236       -1.59683       -0.04067
C         -0.79930       -0.30725       -0.01447
C          0.65041       -0.13939       -0.00017
C          1.56770       -1.24521        0.11713
N          1.44908       -2.33759        0.26697
C          2.89067       -0.66622       -0.01222
C          4.12840       -1.39489        0.03723
N          5.09454       -2.00226        0.09132
C          2.80836        0.75604       -0.23266
N          3.63869        1.46844       -0.39687
C          1.41392        1.07136       -0.18832
C          0.99736        2.42736       -0.49948
N         -0.19439        2.93100       -0.14090
C         -0.92980        2.32747        0.79391
N         -2.05345        1.88768        0.33484
C         -1.76772        0.67318       -0.00729
H         -3.85033       -2.47655       -0.23002
H         -2.53900       -3.43742       -0.32282
H          2.40344       -2.65810        0.42978
H          0.86755       -3.17179        0.30797
H          3.73154        2.47967       -0.31070
H          4.58680        1.09538       -0.43816
H          0.82833        3.48656       -0.74712
H         -1.55761        3.21855        0.63162
