29
Coordinates from ORCA-job ./opt_b97-3c_parallel
N         -4.08972        2.17553        0.17937
C         -2.96121        2.00291        0.21711
C         -1.55596        1.73936        0.26313
C         -0.69904        2.75095        0.76563
C          0.62730        2.45409        0.75507
C          0.62713        1.15801        0.28880
C          1.84997        0.55494       -0.23579
C          2.96933        1.38930       -0.56206
N          3.88325        2.02389       -0.82072
C          2.13659       -0.86810       -0.18164
N          2.99641       -1.55048       -0.31531
N          1.52204       -1.74260        0.64090
C          0.20574       -1.82660        0.86180
N          0.41835       -2.64252        1.57631
C         -0.55744       -1.72279       -0.34496
C         -1.50278       -2.61709       -0.74417
C         -2.49884       -1.93292       -1.28874
C         -2.27306       -0.62649       -1.26110
C         -1.06225       -0.42929       -0.66512
C         -0.66194        0.73702       -0.02650
H         -1.09825        3.70553        1.09727
H          1.34503        3.20307        0.42645
H          3.57168       -2.39146       -0.29567
H          3.54341       -0.84613       -0.81014
H         -0.54888       -2.87475        1.80089
H          0.99802       -3.23508        2.17039
H         -1.44081       -3.70061       -0.66645
H         -3.38650       -2.38780       -1.72412
H         -2.92085        0.13091       -1.69662
