26
Coordinates from ORCA-job ./opt_b97-3c_parallel
N          4.63650        0.55851       -0.31120
C          3.53305        0.83797       -0.20868
C          2.15230        1.20392       -0.13303
C          1.69906        2.48072       -0.24400
C          0.37305        2.48919       -0.25548
C         -0.10818        1.21341       -0.18123
C         -1.50529        0.92203        0.11161
C         -2.38913        1.97729        0.48797
N         -3.07992        1.09628        0.51432
C         -3.64795        0.13653        0.40707
C         -2.32250       -0.23446        0.03602
C         -2.05952       -1.52322       -0.53821
N         -2.63647       -2.43109       -0.78984
N         -0.92075       -1.86311       -1.02915
C          0.13141       -1.94630       -0.29405
C          1.10883       -1.10621        0.15420
C          2.23249       -1.82091        0.68361
N          3.10776       -2.39658        1.14015
C          1.02432        0.31544       -0.10402
H          2.32993        3.36381       -0.31417
H         -0.23319        3.38715       -0.34767
H         -2.55367        3.04095        0.71604
H         -4.55154       -0.49098        0.37861
H         -2.99083       -1.61784       -1.28990
H         -2.38576       -3.11856       -1.49841
H          0.11325       -3.04416       -0.20606
