27
Coordinates from ORCA-job ./opt_b97-3c_parallel
N         -3.94595       -0.42309        1.03464
C         -2.90863       -0.36034        0.66484
N         -2.34596       -1.56962        0.29928
C         -1.06309       -1.32646       -0.13084
C         -0.32616       -2.39443       -0.63010
C          1.06682       -2.43487       -1.03171
C          2.09894       -1.55912       -0.53052
C          1.79529       -0.70625        0.58409
N          1.85228       -0.64459        1.68188
C          1.53296        0.45721       -0.21206
C          2.50562        1.32031       -0.62995
N          1.73645        2.37161       -0.79420
C          0.38226        2.15054       -0.69292
N          0.14551        3.22505       -0.81606
C          0.26077        0.79179       -0.56166
C         -0.82094        0.08802       -0.09709
N         -1.97892        0.64291        0.41206
H         -4.60083        0.24145        1.44799
H         -4.45806       -1.30325        0.96323
H         -0.86642       -3.32113       -0.80659
H          1.39152       -3.27761       -1.63509
H          3.12192       -1.71551       -0.86500
H          2.13116       -1.62044        1.79708
H          2.32452       -0.13762        2.43206
H          3.60183        1.21432       -0.67340
H          0.20304        3.80043       -1.65907
H          0.14479        3.88852       -0.03861
