38
Coordinates from ORCA-job ./opt_b97-3c_parallel
N          1.11419       -4.60037        0.46623
C          0.66966       -3.56021        0.30017
C          0.08176       -2.25531        0.12690
C         -0.96099       -1.89711       -0.81977
N         -1.22990       -2.73389       -1.50220
C         -1.62120       -0.66027       -0.81991
C         -2.68988       -0.44487       -1.76720
N         -2.74976        0.17172       -2.72944
C         -1.49630        0.36883        0.21447
C         -2.56478        1.12947        0.61706
C         -3.98822        0.96102        0.65231
N         -5.11874        0.79498        0.66513
C         -1.96137        2.35473        1.05504
N         -2.35013        3.31255        1.45008
C         -0.60446        2.47613        0.89885
C         -0.35553        1.23508        0.37812
C          0.93652        0.79779       -0.09150
C          2.01115        1.58672       -0.37578
N          2.08425        2.68312       -0.50569
C          3.06601        0.60824       -0.42816
C          4.43634        0.95992       -0.66570
N          5.52245        1.26903       -0.84361
C          2.73980       -0.71055       -0.19261
N          3.35317       -1.84325       -0.57963
C          1.42392       -0.51167        0.14456
C          0.76536       -1.40667        0.94066
N          1.03039       -1.22009        2.24657
H         -1.17829       -3.72729       -1.28047
H         -1.93584       -2.63252       -2.22990
H         -3.35037        3.22566        1.27863
H         -2.20833        4.21429        1.90116
H          0.03149        2.86803        1.69347
H          1.35521        3.39379       -0.48002
H          2.95171        3.15735       -0.75226
H          4.35530       -1.84410       -0.76325
H          3.11172       -2.73308       -0.14605
H          1.86586       -0.70493        2.51888
H          0.92821       -1.99845        2.89531
