26
Coordinates from ORCA-job ./opt_b97-3c_parallel
N         -4.44497       -1.37667       -0.27434
C         -3.32948       -1.15400       -0.15820
C         -1.92621       -0.84912       -0.04714
C         -1.31607       -2.09503        0.01541
C          0.04026       -2.53968        0.15350
C          1.27262       -1.93534        0.16827
C          1.72401       -0.57691        0.06382
C          3.08590       -0.35453        0.04102
N          4.04902       -0.89704        0.05989
C          3.27988        0.99397       -0.02559
C          2.11666        1.62299       -0.03834
C          1.10016        0.70775        0.01333
C         -0.22384        1.12026        0.04005
N         -0.44414        2.41551        0.05663
C         -1.70673        2.63177        0.04378
C         -2.39706        1.52970        0.01678
C         -1.48277        0.52583        0.01763
H         -1.95954       -2.97611       -0.01345
H          0.09935       -3.62188        0.22428
H          2.09718       -2.63730        0.24861
H          3.79847       -1.80098       -0.33509
H          4.99651       -0.69085       -0.25036
H          4.24375        1.50205       -0.06373
H          2.01907        2.70486       -0.09193
H         -2.11007        3.65541        0.05707
H         -3.48212        1.45877        0.00714
