25
Coordinates from ORCA-job ./opt_b97-3c_parallel
N          3.29097       -2.26279       -0.21126
C          2.25434       -1.87257        0.07828
C          1.36537       -1.20840       -0.00740
C          0.29842       -2.05434       -0.14966
N         -0.60202       -2.40489        0.39252
C         -1.53745       -1.82543        0.41800
C         -2.06419       -0.50625        0.24297
C         -3.45150       -0.19134        0.28005
N         -4.50964       -0.46962        0.40183
N         -2.95880        0.79119        0.03673
C         -2.32188        1.69102       -0.20063
C         -1.34557        0.66318       -0.05325
C          0.08319        0.88823       -0.17503
N          0.46929        2.18304       -0.44926
C          1.77741        2.14284       -0.33746
C          2.28561        0.96204        0.11165
C          3.59971        1.23634        0.60273
N          4.65723        1.42352        0.99436
C          1.21085        0.12576        0.00820
H          0.21458       -2.91078       -0.84110
H         -2.31978       -2.57250        0.62158
H         -5.13375        0.07007       -0.19239
H         -4.66136       -1.45138        0.18364
H         -2.32391        2.76979       -0.41794
H          2.03596        3.18998       -0.55438
