31
Coordinates from ORCA-job ./opt_b97-3c_parallel
N         -5.12634       -0.87898       -0.04172
C         -4.05851       -0.47882       -0.00273
C         -2.73768        0.06557        0.05204
C         -1.44457       -0.36570        0.02274
C         -1.17453       -1.66271       -0.04823
C          0.10894       -2.08876       -0.12663
N          0.22512       -3.18289       -0.00437
N          1.42383       -2.25334       -0.22169
C          2.29553       -1.23586       -0.28317
N          3.15372       -1.91515       -0.45111
C          1.99637        0.16780       -0.04769
C          3.11053        1.06452        0.04742
N          4.20992        0.95754       -0.00288
C          2.63135        2.31578        0.28178
C          1.30747        2.29363        0.33164
C          0.83010        1.02135        0.14146
C         -0.60804        0.73340        0.11265
N         -1.43414        1.86208        0.19635
C         -2.68994        1.42223        0.14213
N         -3.21367        2.39750        0.19677
H         -1.99603       -2.37978       -0.10107
H          0.58994       -4.07378       -0.34521
H         -0.33587       -3.41674        0.81557
H          3.88977       -1.22139       -0.59727
H          3.51518       -2.78521       -0.84515
H          4.91624        0.50100        0.57484
H          4.57855        1.88996       -0.19499
H          3.23590        3.21213        0.42657
H          0.70900        3.17995        0.53117
H         -4.21763        2.20338        0.20764
H         -3.14039        3.40922        0.07599
