27
Coordinates from ORCA-job ./opt_b97-3c_parallel
N          4.50884        0.25204        0.20843
C          3.47851       -0.23807        0.16356
C          2.17408       -0.82337        0.13511
C          2.01202       -2.24096        0.27861
C          0.74423       -2.76528        0.23894
C          0.09373       -1.57719        0.06482
N         -1.16204       -1.66306       -0.22718
C         -2.41739       -1.35085       -0.25684
N         -2.94643       -2.24434       -0.62153
C         -2.90113       -0.05808        0.13518
C         -1.86808        0.85284        0.55535
N         -2.19655        1.25082        1.53297
C         -0.82831        1.52144       -0.18556
C         -0.79370        2.85027       -0.49799
N          0.49617        3.08492       -0.70870
C          1.32204        1.98318       -0.56972
C          0.45965        0.90994       -0.23582
C          0.88700       -0.38952        0.00572
H          2.89152       -2.86512        0.40493
H          0.41447       -3.48397        0.98522
H         -3.61759       -1.64962       -1.10251
H         -2.58185       -2.89853       -1.31026
H         -3.96446        0.16437        0.09237
H         -3.15500        1.30937        1.87184
H         -1.78604        2.17560        1.65002
H         -1.56979        3.62521       -0.57510
H          2.35447        2.30761       -0.76794
