25
Coordinates from ORCA-job ./opt_b97-3c_parallel
N          3.67368       -0.76830       -0.79786
C          2.60052       -0.97688       -0.45870
C          1.25768       -1.19116       -0.01020
C          1.29507       -2.54639       -0.12709
N          0.03152       -2.82163        0.09336
C         -0.59867       -1.63364        0.39313
C         -1.94013       -1.86994        0.50828
C         -2.80871       -0.97968       -0.05463
N         -2.87474       -0.05901       -0.66400
C         -2.26778        0.86133       -0.59878
C         -1.05654        1.55318       -0.26167
C         -0.79587        2.87726       -0.31163
C          0.41339        3.02119        0.20993
C          0.96366        1.86733        0.58937
N          2.16549        1.78750        1.18098
C          0.07362        0.86991        0.28690
C          0.15593       -0.49389        0.39437
H          1.69776       -3.54441       -0.36093
H         -2.30984       -2.82237        0.88695
H         -3.53623       -1.03774        0.77001
H         -3.05969        1.52416       -0.97982
H         -1.44655        3.66198       -0.68971
H          0.90001        3.98733        0.32472
H          2.86029        2.51520        1.02391
H          2.65494        0.89579        1.22953
