30
Coordinates from ORCA-job ./opt_b97-3c_parallel
N          2.49657        4.41518        0.92877
C          1.99445        3.45727        0.55927
C          1.41643        2.23423        0.09149
C          0.59539        2.16704       -1.06825
N         -0.68708        2.52841       -0.79141
C         -1.44016        1.54965       -0.16488
C         -2.76833        1.83024       -0.00000
C         -3.28955        0.56688        0.18359
N         -4.38023        0.72321        0.32204
C         -2.33486       -0.43076        0.15151
C         -2.90192       -1.73419        0.34839
N         -3.14561       -2.77341        0.75756
C         -1.11211        0.15239       -0.04529
C          0.12374       -0.63115       -0.17690
C          0.05662       -1.98624       -0.28691
C          1.39020       -2.14985       -0.03464
C          1.68189       -3.54865       -0.15792
N          1.93808       -4.65452       -0.28350
C          2.36226       -1.23687        0.27379
N          3.69932       -1.34652        0.36300
C          1.47630       -0.21065        0.12844
C          1.94527        1.04030        0.49599
H          0.35916        3.17812       -1.43541
H         -3.25314        2.57306       -0.63760
H         -4.75308       -0.21197        0.48066
H         -5.16281        1.36863        0.41162
H         -0.42466       -2.45246       -1.14510
H          4.15809       -2.21747        0.10174
H          4.29613       -0.57518        0.06991
H          2.86577        1.08966        1.07282
