34
Coordinates from ORCA-job ./opt_b97-3c_parallel
N          2.86119        1.04342        2.57104
C          2.88588        0.94627        1.43155
C          2.37018        0.47088        0.56950
C          1.91910        1.48696       -0.22646
C          0.53629        1.87782       -0.35478
C          0.17753        3.11278       -0.81686
N          0.70414        4.00903       -1.18814
C         -1.18160        3.16358       -0.71512
C         -1.70784        2.05700       -0.19026
N         -3.04219        1.93359       -0.14511
C         -0.66214        1.20580        0.07009
C         -0.76105       -0.24415        0.23264
C         -1.95448       -0.93025        0.63500
C         -2.98865       -0.49484        1.51996
N         -3.82549       -0.19136        2.23547
C         -1.85053       -2.27066        0.12884
N         -2.35021       -3.25697        0.12072
N         -0.68184       -2.41271       -0.60243
C         -0.04129       -1.18845       -0.56588
C          1.36388       -1.10721       -0.84392
C          1.98042       -1.98310       -1.79938
N          2.43319       -2.70127       -2.56403
C          2.16921       -0.80024        0.22239
N          2.55484       -1.86088        0.96672
H          2.63850        2.17107       -0.67783
H          1.66261        4.26746       -0.95929
H          0.18584        4.88237       -1.27219
H         -1.78302        4.00061       -1.07077
H         -3.61945        2.61929       -0.63135
H         -3.50298        1.75153        0.74622
H         -2.07606       -4.23885        0.09096
H         -3.30379       -3.24149        0.48487
H          2.82461       -2.72882        0.50449
H          3.21331       -1.71790        1.73296
