27
Coordinates from ORCA-job ./opt_b97-3c_parallel
N          4.00241       -0.41937        1.17587
C          3.12842        0.12437        0.67903
C          1.99315        0.71976        0.04391
C          2.42656        1.96513       -0.29609
N          1.16019        2.27758       -0.44691
C         -0.07868        1.69183       -0.34957
C         -1.25828        2.28513       -0.68100
C         -2.35343        2.26628        0.13199
C         -2.96526        1.07613        0.66774
C         -2.32552       -0.18963        0.36682
N         -2.73281       -0.88949        1.12128
C         -1.27563       -0.80485       -0.41807
C         -1.36729       -2.00619       -1.05901
N         -0.18866       -2.50792       -0.76342
C          0.80709       -1.80790       -0.11988
N          1.56889       -2.60937       -0.12686
C          0.07170       -0.65718       -0.20907
C          0.64941        0.55430       -0.15658
H          3.16622        2.76024       -0.47818
H         -1.30023        2.88247       -1.58871
H         -2.84850        3.20167        0.37433
H         -3.86892        1.20152        1.26369
H         -2.63370       -1.53896        1.90073
H         -3.73335       -0.70295        1.04468
H         -2.24337       -2.48004       -1.52713
H          2.38045       -2.31630        0.42036
H          1.88691       -3.38839       -0.70302
