30
Coordinates from ORCA-job ./opt_b97-3c_parallel
N          5.42962        0.56034        1.03782
C          4.33405        0.35074        0.79009
C          2.96841        0.11565        0.44741
C          2.41278       -1.10184        0.17657
C          1.10659       -0.79708       -0.14541
C          0.35083       -1.58810       -1.09413
N          0.84184       -2.37543       -1.69980
C         -0.93199       -2.05361       -0.81061
C         -1.75850       -1.49011        0.24354
N         -2.32432       -2.36955        0.62134
C         -1.86667       -0.12904        0.51875
C         -2.89444        0.18391        1.47847
N         -3.73535        0.42897        2.21291
C         -1.55865        0.81745       -0.52832
C         -2.28685        1.95526       -0.73775
C         -1.46112        2.98078       -0.89674
C         -0.19590        2.60680       -0.80204
C         -0.20071        1.26661       -0.56623
C          0.89639        0.56547       -0.10992
C          2.05179        1.17907        0.27178
H          2.64944       -1.97209        0.78373
H          0.67355       -3.36830       -1.84981
H          1.83607       -2.21765       -1.85235
H         -1.25514       -3.00708       -1.25208
H         -3.24432       -2.08171        0.95079
H         -2.22832       -3.35905        0.84107
H         -3.37223        2.01092       -0.78079
H         -1.78363        4.00141       -1.08826
H          0.67113        3.25303       -0.91478
H          2.28459        2.23439        0.37374
