30
Coordinates from ORCA-job ./opt_b97-3c_parallel
N          1.14624       -4.38930       -1.11215
C          0.70798       -3.40844       -0.72615
C          0.13520       -2.17392       -0.28082
C         -1.20725       -2.03491       -0.54982
C         -1.93920       -0.85500       -0.15581
C         -3.35152       -0.92358       -0.10364
N         -3.91240        0.30672        0.19896
C         -2.86768        1.16109        0.29264
N         -3.57711        1.98965        0.47685
C         -1.62457        0.46454        0.06681
C         -0.41692        1.26365       -0.11643
C         -0.41600        2.61473       -0.32841
C          0.79869        3.01864       -0.68056
C          1.66377        1.96927       -0.66119
C          3.06726        2.09660       -0.90127
N          4.18402        2.23454       -1.10080
C          0.93598        0.79241       -0.27949
C          1.51209       -0.49268        0.03801
C          2.90101       -0.84404       -0.00650
N          4.00148       -1.15130       -0.00972
C          0.65034       -1.35880        0.78317
N          0.48340       -1.48766        1.86921
H         -1.76092       -2.86442       -0.98439
H         -4.11136       -1.70868       -0.23925
H         -4.51592        2.37923        0.39121
H         -3.06573        2.61958        1.09484
H         -1.27639        3.27548       -0.27722
H          1.06805        4.04289       -0.93191
H          0.41864       -2.50285        1.94249
H          1.32879       -1.22370        2.37583
