27
Coordinates from ORCA-job ./opt_b97-3c_parallel
N          3.78188        0.66312        0.08050
C          2.67997        0.55248        0.05506
C          2.07683        1.85566        0.00973
C          0.71966        2.29631       -0.04353
C         -0.55783        1.64464       -0.01082
C         -1.66085        2.43330       -0.03476
C         -2.71945        1.65404        0.02815
C         -2.41262        0.36628        0.09000
N         -3.40140       -0.53899        0.19244
C         -1.03216        0.28703        0.05202
C         -0.33539       -0.98887        0.02118
N         -1.03354       -2.10333        0.00543
C         -0.26232       -3.12302       -0.02366
C          0.98720       -2.77041       -0.02739
C          0.99533       -1.41591        0.00058
C          2.27355       -0.76447        0.03646
H          4.31964        1.52230       -0.01411
H          4.42945       -0.10515       -0.08321
H          2.76270        2.70363        0.00700
H          0.64996        3.37960       -0.08353
H         -1.67805        3.51966       -0.08769
H         -3.73842        2.03558        0.03781
H         -3.19350       -1.52531        0.04330
H         -4.32007       -0.34483       -0.19934
H         -0.73975       -4.11396       -0.04034
H          1.84613       -3.43726       -0.04798
H          3.07832       -1.50129        0.04812
