28
Coordinates from ORCA-job ./opt_b97-3c_parallel
N          2.69877       -2.83500       -0.73377
C          2.46109       -1.74949       -0.46723
C          2.19893       -0.37657       -0.16597
C          3.15460        0.59185       -0.17182
C          2.59130        1.78079       -0.00442
C          1.23732        1.65046        0.08343
C          0.40672        2.71425        0.61610
C         -0.96648        2.87261        0.53581
N         -1.95753        2.36673       -0.21595
C         -1.58346        1.30554       -0.99332
C         -1.53311        0.10472       -0.22904
C         -2.49027       -0.87405       -0.19828
N         -3.52500       -0.99426       -0.56392
C         -1.87375       -1.95706        0.37063
C         -0.58288       -1.73943        0.62940
N          0.15597       -2.62665        1.31439
C         -0.32878       -0.45375        0.24636
C          0.91539        0.24432       -0.00419
H          4.22285        0.41628       -0.27701
H          3.13224        2.72347        0.03623
H          0.96344        3.53796        1.05180
H         -1.48981        3.73582        0.97286
H         -2.59994        1.42071       -1.39914
H         -3.91308       -0.07030       -0.38299
H         -4.27103       -1.66750       -0.40050
H         -2.39033       -2.87772        0.64023
H          1.17193       -2.55834        1.30642
H         -0.08726       -3.61480        1.29444
