29
Coordinates from ORCA-job ./opt_b97-3c_parallel
N          4.55941        1.08074        0.87953
C          3.46545        1.10268        0.55260
C          2.08773        1.16366        0.17031
C          1.30011        2.33201        0.41790
C         -0.02778        2.50344        0.06387
C         -1.07231        1.61442       -0.18416
N         -2.32904        2.16392       -0.31558
C         -3.26037        1.13548       -0.30533
N         -4.36105        1.12618       -0.35847
N         -2.60974       -0.07579       -0.15084
C         -1.26240        0.19246       -0.09438
C         -0.31378       -0.88131        0.05650
C         -0.64606       -2.25770        0.25559
N         -1.55793       -2.87077        0.38649
C          0.45376       -3.08302        0.26656
C          1.45393       -2.20881       -0.09018
N          2.43001       -2.67419       -0.30971
C          1.06317       -0.83811       -0.20430
C          1.76614        0.19554       -0.71779
H          1.84209        3.17723        0.83373
H         -0.33811        3.54431        0.11202
H         -4.90192        1.99007       -0.35955
H         -5.01136        0.37950       -0.11605
H         -2.54959       -2.79337        0.60283
H         -1.41059       -3.82859        0.06852
H          0.61000       -3.81498        1.06167
H          2.56483       -3.68394       -0.27391
H          3.35980       -2.26227       -0.37550
H          2.31928        0.08164       -1.64820
