29
Coordinates from ORCA-job ./opt_b97-3c_parallel
N          1.78660        2.78632       -0.74163
C          2.14581        1.71083       -0.87854
C          1.87357        0.41263       -0.33619
C          2.91132       -0.47193       -0.12590
N          4.00999       -0.44601       -0.24813
C          2.54401       -1.67832        0.41594
C          1.18842       -1.53012        0.43462
C          0.28924       -2.60486        0.79276
C         -1.07765       -2.44618        0.67593
N         -1.62113       -2.42685       -0.60213
C         -2.20472       -1.23643       -1.01425
C         -1.81525       -0.01883       -0.35749
C         -2.73516        0.97568       -0.23119
N         -3.80456        1.16569       -0.45208
N         -2.19365        2.00969        0.40239
C         -0.89592        1.56151        0.62885
N         -0.52831        2.47088        1.14806
C         -0.58690        0.29954        0.15625
C          0.67422       -0.23576        0.08813
H          4.45374        0.45291       -0.43152
H          4.76328       -1.13256       -0.21450
H          3.00232       -2.62362        0.12158
H          0.73585       -3.53142        1.15673
H         -1.12979       -3.52122        0.91206
H         -2.57582       -2.13795       -1.52754
H         -4.27146        0.26731       -0.59276
H         -4.56070        1.84312       -0.34109
H         -0.72009        3.43263        1.43373
H          0.47376        2.46528        0.93791
