34
Coordinates from ORCA-job ./opt_b97-3c_parallel
N          3.61104       -1.66967       -2.52343
C          2.81769       -1.05813       -1.97280
C          1.93543       -0.49346       -0.99400
C          2.34513        0.81177       -0.79128
C          1.98965        1.56258        0.38760
C          3.03005        2.42809        0.88713
N          3.86209        3.09087        1.30554
C          0.64766        1.74335        0.75378
N          0.41548        2.57197        1.45938
C         -0.50412        1.22135        0.15184
C         -1.71224        1.85800       -0.02731
N         -2.12930        2.88167        0.05244
C         -2.59071        0.78712       -0.37940
C         -4.00145        0.79357       -0.65704
N         -4.85666        1.07654       -1.36111
C         -2.07837       -0.48147       -0.44392
N         -2.29301       -1.49236       -1.30788
C         -0.78748       -0.17476       -0.07941
C          0.14504       -1.13193        0.47331
C         -0.24463       -2.39336        1.03488
C         -1.53993       -2.74373        1.52795
N         -2.57605       -2.99520        1.94103
C          0.86305       -3.17340        1.05490
C          1.86274       -2.50177        0.50368
C          1.47352       -1.24080        0.14168
H          3.20843        1.19587       -1.33509
H          1.00294        3.22687        1.97349
H         -0.51512        2.62454        1.87185
H         -2.80376        3.32032       -0.57264
H         -1.27637        3.43739        0.00783
H         -1.95241       -2.42479       -1.08077
H         -3.22242       -1.60862       -1.70922
H          0.91497       -4.19226        1.43153
H          2.86963       -2.89426        0.37927
