30
Coordinates from ORCA-job ./opt_b97-3c_parallel
N         -1.92745       -4.85999        0.00973
C         -1.68512       -3.74319        0.00822
C         -1.41979       -2.32944        0.00365
C         -0.07117       -2.03627        0.00067
C          0.98660       -1.16479        0.00235
C          2.34963       -1.60316        0.00488
C          3.21058       -0.46170        0.00294
C          4.62866       -0.68356        0.00443
N          5.76193       -0.82573        0.00586
C          2.39988        0.66064       -0.00044
N          2.97677        1.60737       -0.00229
C          1.02512        0.20774       -0.00097
C         -0.07238        1.15536       -0.00515
N          0.25304        2.45923       -0.00854
C         -0.84348        3.27354       -0.01303
N         -0.71626        4.36964       -0.01666
C         -1.66871        2.19995       -0.01120
C         -1.44820        0.71219       -0.00568
C         -2.67299       -0.06951       -0.00379
C         -4.01082        0.44607       -0.00571
N         -5.05907        0.89946       -0.00738
C         -2.60236       -1.50612        0.00054
H          0.45053       -2.99577       -0.00084
H          2.68504       -2.63709        0.00706
H          3.99404        1.69332       -0.00580
H          2.61091        2.55562       -0.01141
H          0.11173        4.96510       -0.01828
H         -1.51690        5.00172       -0.01921
H         -2.71374        2.48611       -0.01435
H         -3.55375       -2.03534        0.00174
