26
Coordinates from ORCA-job ./opt_b97-3c_parallel
N         -4.87016       -0.89899        0.31717
C         -3.82777       -0.43165        0.27909
C         -2.51430        0.13247        0.19422
C         -2.38483        1.48495        0.03420
C         -1.01960        1.62966        0.06446
C         -0.84842        3.04971       -0.03382
N         -0.15160        3.56703       -0.77886
C         -0.36870        0.41970        0.14245
C          1.07447        0.26093        0.16362
C          1.88355        1.44010        0.30181
N          3.19765        1.12417        0.26654
C          3.23057       -0.24748        0.09358
N          4.32620       -0.38870        0.05071
C          1.92791       -0.81360        0.03271
C          1.84769       -2.23663       -0.25777
C          0.70758       -3.00553       -0.35167
C         -0.55652       -2.49003        0.03288
N         -1.22564       -1.71616        0.40566
C         -1.30674       -0.63446        0.25421
H         -3.00162        1.99859       -0.70510
H          2.08884        2.51458        0.42513
H          4.53624       -1.38083       -0.04431
H          5.22684        0.08844        0.08538
H          2.78697       -2.74924       -0.44142
H          0.75310       -4.05109       -0.64231
H         -1.32658       -3.27265       -0.06094
