24
Coordinates from ORCA-job ./opt_b97-3c_parallel
N         -4.47769       -0.26711       -0.65298
C         -3.43453       -0.56258       -0.28819
C         -2.07353       -0.16346       -0.04436
C         -2.10621        1.20200        0.09560
N         -2.53337        2.22450        0.15039
N         -0.80948        1.62198        0.19565
C         -0.04679        0.47063        0.11007
C          1.39001        0.64172        0.02684
C          2.01697        1.92651        0.06896
C          3.35955        1.77939       -0.08410
C          3.64859        0.49139       -0.22275
C          2.51213       -0.25722       -0.13368
C          2.57859       -1.70565       -0.10460
N          1.58518       -2.58673        0.08648
C          0.29755       -2.27860        0.06052
N         -0.94705       -1.95255        0.02990
C         -0.79996       -0.67269        0.03812
H         -3.48105        1.90192       -0.05735
H         -2.59176        3.24127        0.20583
H          1.49159        2.86641        0.20395
H          4.08263        2.59161       -0.11175
H          4.64840        0.09327       -0.38553
H          3.56393       -2.19325       -0.16100
H          0.39941       -3.34141        0.33464
