33
Coordinates from ORCA-job ./opt_b97-3c_parallel
N          4.96940        1.81996        0.89439
C          3.94898        1.34730        0.69382
C          2.65017        0.79551        0.43589
C          1.55429        1.58872        0.60623
C          0.51675        0.74483        0.28035
C         -0.81658        1.30448        0.07168
N         -0.98812        2.66164       -0.04000
C         -2.34128        2.83608       -0.28117
N         -2.56599        3.90615       -0.44010
C         -3.08418        1.68136       -0.33767
C         -2.13002        0.75056       -0.05192
C         -2.49061       -0.57055        0.37399
C         -1.44755       -1.40182        0.88933
N         -1.49569       -1.43343        1.99256
C         -0.95666       -2.04162       -0.30290
C         -1.85609       -3.13626       -0.58749
N         -2.59378       -3.97525       -0.83038
C          0.31824       -1.65233       -0.68253
N          0.74040       -2.46833       -1.30138
C          1.00713       -0.50395       -0.10237
C          2.38052       -0.52175       -0.04337
N          3.20635       -1.23086       -0.24790
H          1.58457        2.62262        0.27052
H         -3.45928        4.38841       -0.33986
H         -1.94881        4.55770       -0.92485
H         -4.06588        1.62905        0.13023
H         -3.53633       -0.86828        0.34737
H         -2.18096       -1.62446        2.72310
H         -0.95397       -2.29103        1.88563
H          0.51809       -3.43981       -1.51782
H          1.70181       -2.31716       -1.60649
H          4.17591       -1.03780        0.00078
H          2.99439       -2.16357        0.10235
