30
Coordinates from ORCA-job ./opt_b97-3c_parallel
N         -0.85465       -4.38416       -1.31610
C         -0.70147       -3.25559       -1.21996
C         -0.47172       -1.92217       -0.73748
C          0.36884       -1.90589        0.42976
C          1.30170       -0.89591        0.57487
C          2.39353       -1.36019        1.37919
N          3.24231       -1.72589        2.05156
C          1.29325        0.34396       -0.17689
C          2.46808        1.10449       -0.45112
C          3.84857        0.72910       -0.36141
N          4.95216        0.43385       -0.32957
C          2.00153        2.36692       -0.92251
N          1.03601        1.85362       -0.71200
C          0.17597        1.21425       -0.41094
C         -1.13126        0.98103        0.14047
C         -2.01822        2.06626        0.42472
N         -1.86269        3.16012        0.46537
C         -3.32393        1.68806        0.64194
C         -3.29043        0.35412        0.30511
N         -4.28646       -0.12017        0.24959
C         -1.97852       -0.14730        0.04193
C         -1.74962       -1.42329       -0.57549
H          0.56105       -2.86338        0.91493
H          2.65994        3.19220       -1.23285
H         -0.94875        3.35677        0.06137
H         -2.43713        3.98779        0.31716
H         -4.15922        2.32733        0.34684
H         -4.19979       -1.11783        0.43180
H         -5.25323        0.13370        0.44425
H         -2.64507       -1.95362       -0.89942
