28
Coordinates from ORCA-job ./opt_b97-3c_parallel
N         -4.09550       -1.09478       -0.02540
C         -3.14296       -0.53201       -0.01291
C         -3.00563        0.88533       -0.01105
C         -1.60665        1.14292       -0.00518
C         -1.28806        2.54372        0.00159
C         -0.04973        3.26696       -0.01346
C          1.33237        2.88503       -0.04781
C          2.01090        1.69128       -0.04959
C          1.56866        0.32904       -0.01113
C          2.61383       -0.63118       -0.00046
N          3.66150       -0.97679       -0.00321
N          2.12275       -1.91903        0.03514
C          0.77979       -1.77232        0.04804
N          0.73294       -2.88270        0.07942
C          0.39243       -0.36771        0.01245
C         -0.96296       -0.07220        0.00280
N         -1.86588       -1.08174        0.00065
H         -4.94084       -0.53519        0.10238
H         -4.43324       -2.03951       -0.21555
H         -3.80934        1.61753       -0.01875
H         -2.14930        3.20814        0.01259
H         -0.18921        4.34569       -0.01066
H          1.97099        3.76518       -0.06976
H          3.09201        1.80763       -0.07351
H          4.10559       -0.05881        0.00544
H          4.42276       -1.65559       -0.01845
H          1.28973       -3.52051        0.65485
H          0.24385       -3.48988       -0.57950
