28
Coordinates from ORCA-job ./opt_b97-3c_parallel
N          3.01471        1.40060        2.12876
C          2.21841        1.15773        1.34601
C          1.20392        0.89152        0.37462
C          0.56015        2.10852        0.36715
N         -0.50615        2.59734       -0.30147
C         -1.59696        1.82018       -0.70488
N         -2.02742        2.76029       -1.09292
C         -1.99750        0.55920       -0.11891
C         -3.36111        0.20339        0.09107
C         -3.55980       -1.05495        0.60254
C         -2.27832       -1.56385        0.61204
N         -2.35429       -2.61932        0.92596
C         -1.28374       -0.62234        0.19210
C          0.09967       -0.91058       -0.07907
N          0.52719       -2.20209        0.13052
C          1.75563       -2.27070       -0.32982
C          1.85367       -1.02116       -0.86328
C          3.18431       -0.81938       -1.34576
N          4.24750       -0.61842       -1.71200
C          0.96643       -0.01536       -0.61344
H          0.65260        3.10717        0.82536
H         -2.06468        3.73743       -1.38427
H         -2.80244        2.29871       -1.56857
H         -4.16431        0.90369       -0.11528
H         -4.42794       -1.64053        0.29365
H         -1.43000       -3.02432        0.77664
H         -2.94431       -3.37105        1.28091
H          2.24413       -3.25444       -0.25176
