32
Coordinates from ORCA-job ./opt_b97-3c_parallel
N          5.72967        0.77884       -0.77523
C          4.67926        0.33240       -0.73013
C          3.27851        0.41431       -0.44643
C          2.85197       -0.87780        0.03414
C          1.50957       -0.76673        0.28536
C          0.82162       -1.68154        1.14570
N          0.99026       -2.61605        1.71236
N         -0.15421       -2.38889        0.55968
C         -1.01799       -2.00244       -0.40308
N         -1.12331       -3.04885       -0.74535
C         -1.74386       -0.74722       -0.47432
C         -2.90819       -0.77736       -1.31034
N         -3.81286       -0.83279       -2.00529
C         -1.39293        0.44436        0.29676
C         -2.35910        1.47765        0.57493
C         -3.78453        1.35965        0.63434
N         -4.91747        1.23630        0.70755
C         -1.68742        2.60328        0.91144
C         -0.39129        2.36369        0.80812
C         -0.16163        1.06088        0.45952
C          1.09028        0.49766        0.03437
C          2.16779        1.23726       -0.38349
N          2.38161        2.28500       -0.65557
H          3.48681       -1.74036        0.22072
H          0.67075       -3.48865        2.13559
H          1.75127       -2.28363        2.30415
H         -1.82086       -2.78883       -1.44277
H         -1.08099       -4.06708       -0.75805
H         -2.13745        3.55274        1.19508
H          0.38156        3.09736        1.02734
H          1.70138        3.00948       -0.88132
H          3.29281        2.65146       -0.93207
