28
Coordinates from ORCA-job ./opt_b97-3c_parallel
N         -2.29291        2.07598        0.39460
C         -1.37364        1.46558        0.34997
C         -0.26231        2.24467        0.46055
C          0.50451        2.64572       -0.59870
C          1.69764        1.99828       -0.85760
C          1.93654        0.66948       -0.35601
N          3.19881        0.27677       -0.15514
C          3.38269       -0.82399        0.55640
C          2.11110       -1.14602        0.75067
C          1.22058       -0.32693        0.21806
C         -0.08861       -0.72327        0.14477
C         -0.52323       -1.98361       -0.17971
N         -0.24410       -3.02689       -0.42812
N         -1.86406       -2.09848       -0.29176
C         -2.39433       -0.82554       -0.06256
N         -3.49386       -0.74140       -0.15628
C         -1.28186        0.04207        0.18243
H         -2.29821        2.28073        1.39518
H         -2.32744        2.98491       -0.07088
H          0.03990        2.58022        1.45225
H          0.34038        3.63455       -1.01756
H          2.48838        2.51145       -1.39958
H          4.46113       -1.01647        0.67442
H          1.84326       -2.05980        1.27665
H          0.76258       -3.05671       -0.59930
H         -0.57677       -3.97235       -0.62782
H         -4.45261       -1.04966       -0.32529
H         -3.54755        0.27555       -0.04791
