27
Coordinates from ORCA-job ./opt_b97-3c_parallel
N         -4.86922        0.72701       -0.32979
C         -3.75246        0.90650       -0.18093
C         -2.34539        1.06586        0.00984
C         -1.61385        2.13660       -0.60013
N         -0.30798        2.37472       -0.34997
C          0.75385        1.62306        0.03680
N          1.97332        2.26077        0.20602
C          2.98604        1.31472        0.24856
N          3.95381        1.83311        0.40876
C          2.40828        0.01567        0.04516
C          3.14745       -1.20757        0.03796
N          3.69824       -2.20626        0.03518
C          0.98618        0.19420       -0.06481
C          0.06894       -0.92483       -0.27675
C          0.39377       -2.18713       -0.69870
N         -0.74669       -2.85458       -0.55718
C         -1.80143       -2.13665       -0.02150
N         -2.60551       -2.89452        0.04883
C         -1.26466       -0.83242        0.20019
C         -1.82864        0.18347        0.90111
H         -2.25610        2.86612       -1.12080
H          4.25443        2.79669        0.57761
H          4.82397        1.29432        0.40281
H          0.89742       -3.07927       -1.10614
H         -2.51490       -3.90988        0.12920
H         -3.61323       -2.73043       -0.00767
H         -2.29265        0.01559        1.87256
