26
Coordinates from ORCA-job ./opt_b97-3c_parallel
N         -5.51746        1.01737       -0.22355
C         -4.43010        0.68833       -0.10073
C         -3.06838        0.27377        0.00936
C         -2.62057       -1.00920        0.06852
C         -1.24042       -0.93787        0.12833
C         -0.43199       -2.12043        0.33915
N         -0.97270       -3.06917        0.53560
C          0.91297       -2.44802        0.22327
C          2.09989       -1.72793       -0.15105
C          2.43579       -0.38300       -0.22597
C          3.84464       -0.38382       -0.54329
N          4.88531       -0.46942       -1.00889
C          1.72221        0.83909        0.06784
N          2.51146        1.91867        0.11431
C          1.67568        2.99215        0.32414
N          0.53256        2.38380        0.30641
C          0.39068        1.09807        0.21640
C         -0.84661        0.38308        0.10807
C         -2.00841        1.20377        0.04980
H         -3.11742       -1.78990       -0.50404
H         -1.81922       -2.88882        1.07246
H         -0.66924       -4.01002        0.78000
H          1.19268       -3.50053        0.32792
H          2.89139       -2.46162       -0.31203
H          2.03142        4.02895        0.42080
H         -2.07895        2.28719        0.02383
