30
Coordinates from ORCA-job ./opt_b97-3c_parallel
N         -3.55333        2.71283        0.34825
C         -2.59756        2.11235        0.16860
C         -1.38681        1.34703       -0.01608
C         -1.46857       -0.11267       -0.00510
C         -2.70398       -0.69095        0.05631
C         -2.28288       -1.98846        0.08735
N         -3.04964       -2.78154        0.13923
C         -0.97551       -2.37786        0.05408
C         -0.42980       -1.12889        0.01867
C          1.02111       -1.02045        0.12453
C          1.85742       -2.16122        0.36408
C          3.20674       -1.91779        0.45092
C          3.25453       -0.57025        0.19324
N          4.28628       -0.18027        0.14420
C          1.97004        0.01905        0.01163
C          1.77636        1.37769       -0.33789
N          0.92946        2.05114       -0.55356
C         -0.14642        2.01943       -0.31242
N         -0.12296        3.13296       -0.42464
H         -3.50298       -0.38008       -0.61589
H         -2.92634       -3.79148        0.09848
H         -3.93709       -2.57501       -0.31571
H         -0.64218       -3.14692       -0.64124
H          1.43783       -3.15106        0.50855
H          3.78941       -2.36281        1.25657
H          5.22048       -0.57798        0.06901
H          4.33908        0.77064       -0.21520
H          2.59828        2.09970       -0.45669
H          0.32086        3.93362       -0.86990
H         -0.64915        3.48955        0.37038
