30
Coordinates from ORCA-job ./opt_b97-3c_parallel
N          4.45779        0.51181       -0.38883
C          3.12937        0.56687       -0.22605
C          2.34997        1.68344       -0.23664
C          0.99093        1.31011       -0.05244
C         -0.02445        2.28881        0.20240
C         -1.27271        1.80143        0.70221
N         -1.89789        2.68377        0.92355
N         -2.09836        1.42516       -0.28522
C         -2.20580        0.15744       -0.72664
N         -3.09362        0.56468       -1.25335
C         -1.46554       -0.90669       -0.08351
C         -2.01799       -2.22135       -0.00395
N         -1.02657       -3.02992        0.41537
C          0.15289       -2.40363        0.58180
N          0.74311       -3.29987        0.85467
C         -0.07844       -1.02094        0.26715
C          1.03764       -0.11568        0.07757
C          2.35000       -0.49119       -0.01416
H          4.89530       -0.28059       -0.85707
H          4.98208        1.34846       -0.64492
H          2.69361        2.71417       -0.25356
H          0.24954        3.34447        0.22896
H         -2.69475        3.30766        0.79160
H         -1.36073        3.08398        1.69383
H         -3.93692        1.11653       -1.07549
H         -3.00597        0.54429       -2.27149
H         -2.81462       -2.97301       -0.11955
H          0.65391       -4.31443        0.94389
H          1.67535       -3.08665        1.21359
H          2.72051       -1.51278        0.02112
