28
Coordinates from ORCA-job ./opt_b97-3c_parallel
N         -4.30576        0.92757       -0.35050
C         -3.29417        0.46320       -0.08371
C         -2.27208        0.06036        0.09428
C         -2.37942       -1.29034        0.25100
N         -1.62798       -1.95194        0.73579
C         -0.59953       -2.28912        0.50953
N         -0.67163       -3.35442        0.80477
C          0.58408       -1.68244       -0.03706
C          1.80246       -2.37453       -0.29268
C          2.82203       -1.58486       -0.75861
C          2.24286       -0.33329       -0.73242
N          3.05471        0.33799       -1.06267
C          0.87422       -0.31707       -0.30211
C          0.11728        0.89101       -0.01019
C          0.72472        2.10807        0.10695
C          1.83796        3.01391        0.10411
N          2.87273        3.26321        0.52668
C         -0.32404        2.99113        0.50425
N         -0.88989        2.03489        0.40518
C         -1.29212        0.99955        0.26903
H         -2.75386       -1.89759       -0.59122
H         -1.40072       -3.90466        1.25483
H          0.05828       -3.21122        1.50015
H          1.89947       -3.43882       -0.10369
H          3.44988       -1.93602       -1.57906
H          3.95672        0.51042       -1.50305
H          2.38948        0.96701       -1.50910
H         -0.54856        4.03042        0.78660
