29
Coordinates from ORCA-job ./opt_b97-3c_parallel
N         -3.96159       -2.96514       -0.65528
C         -3.17102       -2.16948       -0.44491
C         -2.20710       -1.13996       -0.19857
C         -0.87256       -1.38004       -0.32649
C         -0.28278       -0.16956       -0.04331
C          1.18466       -0.07513        0.03471
C          2.03212       -1.22591        0.24407
C          1.64354       -2.52628        0.69451
N          1.36476       -3.56804        1.06598
C          3.31053       -0.79138        0.00304
N          4.35386       -1.17145        0.02877
N          3.40086        0.47970       -0.41191
C          2.09766        0.96658       -0.39477
N          1.76748        2.22297       -0.86507
C          0.60761        2.74467       -0.37196
N         -0.57602        3.11264        0.20807
C         -1.25028        2.11851        0.80822
N         -1.88271        2.93607        1.21353
C         -1.28346        0.76426        0.26334
C         -2.53123        0.19054        0.19308
N         -3.54901        0.59462        0.36958
H         -0.51381       -2.00789       -1.14208
H          5.31095       -0.81010        0.06952
H          4.46300       -2.18129        0.16102
H          0.68270        3.73850       -0.84735
H         -2.08082        3.78561        1.75079
H         -2.66837        2.31493        1.43118
H         -4.22392        1.27973        0.02649
H         -4.06394       -0.28698        0.40563
