26
Coordinates from ORCA-job ./opt_b97-3c_parallel
N          2.21364       -1.98600       -0.89173
C          1.39059       -1.46949       -0.36752
N          0.62739       -2.56968       -0.43866
C         -0.61563       -2.55843        0.06228
N         -1.40227       -1.69078        0.61091
C         -1.97442       -0.61161        0.17420
C         -3.32145       -0.72304        0.01372
C         -3.28181        0.58196       -0.37539
N         -2.31610        1.10467       -0.27989
C         -1.33216        0.65516       -0.07566
C          0.09288        0.82235        0.08569
C          0.63414        2.14040       -0.01237
N          0.53133        3.22846       -0.15556
N          1.93254        1.98055        0.22537
C          2.16158        0.68205        0.42925
N          3.25046        0.71600        0.62562
C          1.05282       -0.24055        0.31192
H          2.51220       -2.95645       -0.78811
H          1.91426       -1.88422       -1.86098
H         -1.21559       -3.48044        0.01666
H         -3.96568       -1.04039        0.83124
H         -4.26181        0.92563       -0.74245
H          0.72490        4.21393        0.01881
H         -0.47176        3.15775       -0.32493
H          3.55411       -0.24627        0.46990
H          4.09948        1.26401        0.76278
