32
Coordinates from ORCA-job ./opt_b97-3c_parallel
N          5.35665       -0.60691       -1.22896
C          4.27234       -0.65735       -0.87387
C          2.90658       -0.68290       -0.44731
C          2.11119        0.40979       -0.63916
C          0.91058       -0.00680       -0.12102
C         -0.27699        0.80287        0.08262
C         -0.14684        2.17118        0.14608
C          0.91503        3.12724        0.10197
N          1.73693        3.91949        0.08279
C         -1.47697        2.65842        0.36732
N         -2.21453        3.46689        0.52879
N         -2.35351        1.59132        0.38343
C         -1.60883        0.43454        0.20507
C         -2.35592       -0.79065       -0.11140
C         -3.77395       -0.68065       -0.32239
N         -4.89479       -0.54676       -0.49749
C         -1.73926       -2.06544       -0.44166
N         -2.14688       -2.96270       -0.94566
C         -0.54538       -2.49980        0.23915
C          0.02754       -1.78089        1.23575
C          0.99995       -1.25719        0.44047
C          2.31568       -1.77861        0.25034
N          2.71834       -2.74535        0.60078
H          2.15564        0.96287       -1.57495
H         -3.20522        3.65381        0.37046
H         -1.79431        4.36481        0.77178
H         -3.07075       -2.96449       -1.37615
H         -1.96022       -3.92456       -0.66470
H         -0.16287       -3.50626        0.04821
H          0.27575       -2.24813        2.18689
H          2.50075       -3.71561        0.37982
H          3.72886       -2.64637        0.51248
