30
Coordinates from ORCA-job ./opt_b97-3c_parallel
N         -4.82178        1.06240       -0.53919
C         -3.69818        1.21399       -0.40395
C         -2.28360        1.37022       -0.26323
C         -1.70435        2.59926       -0.21885
C         -0.39460        2.46919       -0.07527
C         -0.06213        1.14602       -0.05952
C          1.28734        0.67595        0.13929
C          2.37650        1.53636        0.48704
N          2.93286        2.44175        0.77591
N          3.49284        0.79190        0.33481
C          3.26610       -0.46251       -0.10642
N          4.33229       -0.73954       -0.22973
C          1.83684       -0.57893       -0.18683
C          1.15762       -1.51822       -1.01860
N          0.48998       -2.50083       -0.31752
C         -0.75659       -2.19924        0.09792
N         -0.62099       -3.29103        0.27934
C         -1.57532       -1.07272        0.02400
C         -2.87422       -1.61924        0.29428
N         -3.87890       -2.10765        0.53035
C         -1.26945        0.34859       -0.16916
H         -2.23731        3.54730       -0.27954
H          0.29883        3.30568       -0.01952
H          3.78325        2.93762        1.04569
H          2.16696        3.09447        0.93944
H          4.85137       -1.53861        0.14000
H          5.05390       -0.10385       -0.57932
H          1.92978       -2.25919       -1.28001
H         -1.13656       -3.42874        1.15227
H         -0.95804       -4.03731       -0.33427
