28
Coordinates from ORCA-job ./opt_b97-3c_parallel
N          5.09065        0.94538       -0.00347
C          3.99687        0.61352       -0.00360
C          2.61018        0.23824       -0.00240
C          2.31138       -1.15665       -0.00439
C          0.89360       -1.31581       -0.00275
C          0.47859       -2.69137       -0.00753
C         -0.74345       -3.32080       -0.00618
C         -2.10614       -2.87986        0.00668
C         -2.72312       -1.65250        0.01636
C         -2.24059       -0.30173        0.01088
C         -3.26587        0.68522        0.01464
C         -2.60273        1.94829        0.00271
N         -2.89282        3.01356       -0.00251
N         -1.23554        1.72475       -0.00330
C         -1.05763        0.38778        0.00172
C          0.31981       -0.07036        0.00016
C          1.39556        0.90848        0.00026
N          1.57653        2.00307        0.00269
H          3.04860       -1.95479       -0.00712
H          1.31888       -3.38099       -0.01348
H         -0.67013       -4.40491       -0.01222
H         -2.80125       -3.71556        0.00825
H         -3.80797       -1.71002        0.02529
H         -4.33933        0.51869        0.02201
H         -3.86330        3.32524       -0.03210
H         -2.32382        3.85915       -0.03440
H          0.90027        2.76328        0.00187
H          2.49788        2.44249        0.02544
