22
Coordinates from ORCA-job ./opt_b97-3c_parallel
N          3.90123       -0.98875        0.06497
C          2.75676       -0.89972        0.07762
C          1.64686       -0.79299        0.10029
C          1.14024       -1.97590       -0.35427
N          0.23613       -2.19098        0.54582
C         -1.04207       -2.05368        0.48785
C         -1.74046       -0.85504        0.11651
C         -3.16340       -0.86424        0.04113
N         -2.91836        0.19375       -0.22938
C         -2.48780        1.20819       -0.42168
C         -1.29570        0.47087       -0.14471
C         -0.00871        1.16737       -0.07443
C          0.02504        2.52764       -0.19020
C          1.24865        2.67679        0.38363
N          1.36809        1.62729        0.07595
C          1.27410        0.52418        0.11312
H          1.42602       -2.81312       -1.01015
H         -1.66986       -2.93420        0.69048
H         -3.97555       -1.58960        0.19789
H         -2.88418        2.20473       -0.66847
H         -0.80609        3.15349        0.12773
H          1.75181        3.63801        0.56523
