27
Coordinates from ORCA-job ./opt_b97-3c_parallel
N         -2.76150       -2.68227       -1.69633
C         -1.96643       -1.87409       -1.54804
C         -1.08794       -1.03423       -0.78500
C          0.08978       -1.73480       -0.58176
C          1.04183       -1.41449        0.45291
C          1.65443       -2.55853        1.08426
N          2.14215       -3.47937        1.55356
C          1.63543       -0.14606        0.50418
N          2.59206       -0.04734        1.06729
C          1.35018        0.94660       -0.31787
C          2.25065        1.93881       -0.61405
C          1.57999        3.05731       -0.84454
C          0.27462        2.87484       -0.72689
C          0.05943        1.56836       -0.40833
C         -1.02955        1.11068        0.41146
N         -1.93098        1.93239        0.89641
C         -3.00921        1.23207        0.97989
C         -2.88411       -0.01191        0.59679
C         -1.59300       -0.14047        0.22478
H          0.17417       -2.74926       -0.97212
H          3.06229        0.82623        1.29400
H          3.29264       -0.78454        1.12005
H          3.33204        1.83168       -0.66925
H          2.04322        4.00615       -1.10324
H         -0.49142        3.63351       -0.86869
H         -3.91277        1.73495        1.35679
H         -3.65826       -0.77492        0.58178
