37
Coordinates from ORCA-job ./opt_b97-3c_parallel
N          1.37471        3.98963       -2.06550
C          0.92578        3.15073       -1.43298
C          0.35141        2.07020       -0.67026
C          0.80198        1.82422        0.68448
N          1.00170        2.69215        1.35034
C          1.75318        0.73354        0.78310
C          2.76064        0.66502        1.81058
N          3.54239        0.56318        2.63679
C          1.61139       -0.34297       -0.17577
C          2.66482       -1.26739       -0.48382
C          4.07564       -1.11941       -0.31714
N          5.20892       -1.04038       -0.20953
C          2.03915       -2.42804       -1.04468
N          2.28936       -3.42705       -1.44694
N          0.66657       -2.27389       -1.00193
C          0.38493       -1.00542       -0.51658
C         -0.94343       -0.65844       -0.03604
C         -1.93583       -1.66544        0.23501
N         -1.88222       -2.77106        0.29208
C         -3.17162       -0.95057        0.46127
C         -4.42986       -1.56996        0.78197
N         -5.41197       -2.09528        1.03458
C         -2.98468        0.46102        0.22126
N         -3.83118        1.17343        0.26744
C         -1.58469        0.62652       -0.07445
C         -1.06752        1.79837       -0.76469
N         -1.75486        2.42456       -1.36798
H          1.77606        2.80168        2.00547
H          0.77472        3.63245        1.02625
H          3.28996       -3.61618       -1.36874
H          1.86685       -4.29537       -1.77634
H         -2.81641       -3.10516        0.53072
H         -1.48381       -3.47285       -0.32769
H         -4.73965        0.99662        0.69566
H         -3.65892        2.17385        0.35801
H         -2.69111        2.10991       -1.62069
H         -1.67599        3.39133       -1.68067
