28
Coordinates from ORCA-job ./opt_b97-3c_parallel
N          4.30734       -0.17256       -0.22776
C          3.25796       -0.21566        0.11140
C          2.10260       -0.90700       -0.09410
C          0.97982       -0.13702        0.01583
C         -0.33958       -0.77329        0.03470
C         -0.49228       -2.20338        0.07544
N          0.08800       -3.14253        0.12343
C         -1.82839       -2.50177        0.08288
C         -2.54338       -1.38505        0.05930
C         -1.70257       -0.31304        0.03208
C         -2.08679        1.06545       -0.06709
N         -3.15987        1.34283       -0.13555
N         -1.76181        2.11316       -0.12839
C         -0.74267        2.47149        0.07894
C          0.65874        2.40345        0.27147
C          1.32039        1.20177        0.14951
N          2.56796        0.87608        0.17753
H          4.79698       -1.03123       -0.47819
H          4.99416        0.57742       -0.29989
H          2.11491       -1.75757       -0.77338
H         -0.23365       -4.00914       -0.30685
H         -0.10723       -3.22298        1.12040
H         -2.26931       -3.49973        0.10393
H         -3.63055       -1.33943        0.05952
H         -3.82430        2.11187       -0.06929
H         -3.33716        0.87715       -1.02327
H         -1.10547        3.50636        0.18264
H          1.19019        3.33259        0.45145
