31
Coordinates from ORCA-job ./opt_b97-3c_parallel
N          5.34404        2.52922       -0.17440
C          4.38985        1.90415       -0.24528
C          3.19354        1.12658       -0.29378
C          1.91691        1.71067       -0.10657
C          1.02902        0.60657       -0.22160
C         -0.40351        0.88413       -0.11592
C         -0.89699        2.13921        0.12848
C         -2.25091        1.92417        0.17716
N         -2.82677        2.83654        0.41561
C         -2.63313        0.63291       -0.09953
C         -3.92739        0.02518       -0.17491
N         -4.95067       -0.47678       -0.25982
C         -1.42980       -0.09401       -0.31749
C         -1.34913       -1.41353       -0.64858
C         -0.99550       -2.23312        0.37918
N         -1.20087       -2.92159        1.21366
N          0.17453       -2.31612       -0.16973
C          1.36220       -1.89481       -0.44368
N          1.79785       -2.89967       -0.57483
C          1.81621       -0.52797       -0.42112
C          3.15004       -0.21569       -0.53317
H          1.69358        2.75624        0.07666
H         -0.49864        3.00016       -0.40729
H         -3.81802        2.60184        0.40001
H         -2.75025        3.81393        0.14033
H         -1.93957       -1.80042       -1.47845
H         -1.91728       -3.27850        1.84252
H         -0.37212       -3.49742        1.35132
H          2.03602       -2.38810       -1.42137
H          1.41716       -3.79715       -0.86936
H          3.91293       -0.87736       -0.12789
