29
Coordinates from ORCA-job ./opt_b97-3c_parallel
N          5.02375        0.66351        0.51582
C          3.90674        0.65297        0.27988
C          2.51631        0.59594       -0.03888
C          2.10508       -0.51980       -0.70562
C          1.36468       -1.53001       -0.16225
C          1.91592       -2.76966        0.00615
N          0.84547       -3.53007        0.23198
C         -0.39262       -2.90602        0.24754
N         -0.98921       -3.82058        0.44034
C         -0.05248       -1.54518        0.00992
C         -1.01175       -0.45886       -0.09706
N         -2.30927       -0.51304       -0.05574
C         -2.99561        0.59344       -0.15466
N         -4.09560        0.45843       -0.16792
C         -1.98515        1.53515       -0.17872
C         -2.26811        2.94142       -0.23046
N         -3.21439        3.46553       -0.59676
C         -0.71665        0.87833       -0.13615
N          0.36783        1.58301       -0.08930
C          1.61776        1.67661        0.23810
N          1.38642        2.67505        0.64100
H          2.41438       -0.62049       -1.74536
H          2.91731       -3.22988        0.00275
H         -1.88129       -3.98885        0.90766
H         -0.65215       -4.75625        0.19779
H         -4.29051        1.43863       -0.39235
H         -5.01636        0.03041       -0.05399
H          2.40234        2.75713        0.62356
H          1.03333        3.61565        0.81655
