28
Coordinates from ORCA-job ./opt_b97-3c_parallel
N          4.54016       -0.96139       -0.58728
C          3.42259       -1.00323       -0.36163
C          2.01842       -1.09087       -0.10225
C          1.22313       -2.11479       -0.71135
N         -0.07122       -2.35215       -0.40421
C         -1.09292       -1.61124        0.09213
N         -2.33374       -2.18749        0.25592
C         -3.27817       -1.18026        0.42332
N         -4.37171       -1.13088        0.57303
N         -2.64848        0.04929        0.30849
C         -1.30616       -0.19319        0.12737
C         -0.36982        0.89550       -0.03572
C         -0.69509        2.21617       -0.22722
N         -1.61180        2.81726       -0.37474
C          0.49408        2.89396       -0.17962
C          1.51662        2.08273        0.08124
N          2.79235        2.48239        0.17811
C          1.02293        0.82188        0.21973
C          1.56996       -0.24418        0.85717
H          1.82350       -2.82841       -1.29859
H         -4.96712       -0.30551        0.48591
H         -5.00617       -1.90222        0.78678
H         -1.31454        3.72352       -0.01042
H         -2.49037        2.99697       -0.85968
H          0.60340        3.96696       -0.34129
H          3.05588        3.43649       -0.06683
H          3.55878        1.86859       -0.09702
H          2.11259       -0.11387        1.79316
