30
Coordinates from ORCA-job ./opt_b97-3c_parallel
N         -3.59809       -2.59990        0.59108
C         -2.98572       -1.64726        0.44579
C         -2.18705       -0.48198        0.23210
C         -2.96632        0.59933       -0.05230
N         -3.93952        1.11221       -0.20534
N         -2.23269        1.68411       -0.28958
C         -0.89940        1.27402       -0.17681
C         -0.18054        2.43792       -0.29093
C          1.14894        2.44847        0.00356
N          1.57915        2.97753        0.86858
N          1.80624        1.57148       -0.68846
C          2.28154        0.38120       -0.52404
N          3.32723        0.58470       -0.80971
C          1.50603       -0.74128       -0.06029
C          2.15949       -1.92522        0.13886
N          3.08324       -2.53637        0.15462
N          1.31408       -2.89638        0.47163
C          0.07713       -2.25769        0.46049
C          0.16359       -0.91591        0.16482
C         -0.88892       -0.07659        0.10077
H         -4.39901        2.00760       -0.37975
H         -4.69474        0.42370       -0.19613
H         -0.66228        3.39348       -0.50975
H          2.57136        3.12791        0.69395
H          1.23697        3.83778        1.29733
H          3.38661        0.26758       -1.77707
H          3.87425        1.44546       -0.76540
H          3.46027       -3.47169        0.31774
H          3.89851       -1.93362        0.02803
H         -0.36360       -3.22396        0.75570
