32
Coordinates from ORCA-job ./opt_b97-3c_parallel
N          3.34095       -3.03468       -1.47883
C          2.54759       -2.36079       -1.00724
C          1.53764       -1.50330       -0.45928
C          0.16659       -1.72368       -0.79182
C         -0.82602       -0.83869       -0.23656
C         -2.14251       -1.36536       -0.00569
N         -2.46409       -2.42509       -0.05253
C         -2.94418       -0.21406        0.32619
C         -4.33881       -0.36110        0.65760
N         -5.43825       -0.46904        0.95090
C         -2.16485        0.92873        0.21610
N         -2.69740        1.88144        0.41536
C         -0.81702        0.54155       -0.14007
C          0.12072        1.52295       -0.51529
C         -0.35162        2.71764       -0.97611
C          0.84844        3.35658       -1.04661
N          1.47605        2.46736       -0.88616
C          1.56294        1.46382       -0.44014
C          2.32554        0.43736        0.20885
C          3.70102        0.65779        0.53870
N          4.78433        0.84751        0.84771
C          1.86170       -0.76221        0.63882
N          1.91843       -1.47116        1.78262
H         -0.11162       -2.66213       -1.26321
H         -2.00706       -3.16331        0.47939
H         -3.44851       -2.44174        0.20978
H         -2.12950        2.72570        0.43112
H         -3.66555        2.17147        0.54286
H         -1.04146        2.75430       -1.81760
H          1.24626        4.20316       -1.62580
H          2.56293       -1.18006        2.51598
H          1.97239       -2.48766        1.73117
