26
Coordinates from ORCA-job ./opt_b97-3c_parallel
N         -0.60395        3.32252        0.45779
C         -0.10337        2.36769        0.21966
C          1.22805        2.12585       -0.26409
C          1.85597        0.88436       -0.41675
N          2.87443        1.13558       -0.77340
C          1.47965       -0.47737       -0.02400
C          2.52354       -1.44700        0.11095
C          2.00223       -2.64588        0.44947
C          0.68653       -2.50523        0.49340
C          0.32132       -1.21115        0.22021
C         -1.05768       -0.81869        0.07205
N         -2.08305       -1.74560        0.02878
C         -3.30766       -1.27101       -0.13725
C         -3.01609        0.02276       -0.13723
C         -1.74199        0.33513       -0.02026
N         -0.96949        1.37633        0.10486
H          0.26930        3.68747        0.83832
H         -1.34054        3.71418        1.04378
H          1.77232        3.05566       -0.45685
H          3.25290        1.81954       -1.42870
H          3.13029        0.22532       -1.15609
H          3.58544       -1.24873       -0.00088
H          2.56192       -3.55298        0.66616
H         -0.00118       -3.30419        0.76322
H         -4.14105       -1.98749       -0.20093
H         -3.79148        0.78101       -0.21561
