31
Coordinates from ORCA-job ./opt_b97-3c_parallel
N         -5.56372       -0.82637       -0.02634
C         -4.69637       -0.08267       -0.01424
C         -3.26024       -0.11233       -0.01002
C         -2.87895        1.26849       -0.00163
C         -1.44863        1.31203        0.00196
C         -0.92786        2.64913        0.00625
C          0.34228        3.17232        0.00615
C          1.67381        2.61609        0.00929
N          2.46921        3.38461        0.00797
C          2.25544        1.29623        0.01651
C          1.66790       -0.01682        0.01046
C          2.56490       -1.13898        0.01166
C          3.99685       -1.15231        0.01938
N          5.13544       -1.20777        0.02512
C          1.76855       -2.32193       -0.00106
N          1.87171       -3.42303       -0.00749
N          0.44024       -1.95567       -0.00686
C          0.34731       -0.56972       -0.00050
C         -0.96972        0.02875       -0.00286
C         -2.10454       -0.86776       -0.01051
N         -2.44296       -1.92198       -0.01666
H         -3.54568        2.12916        0.00005
H         -1.69735        3.41698        0.00708
H          0.33880        4.26276        0.00549
H          3.47862        3.25199       -0.03687
H          2.31573        4.39130       -0.03995
H          3.34413        1.29069        0.02406
H          2.85421       -3.70154       -0.00668
H          1.33505       -4.29012       -0.02124
H         -1.79045       -2.70105       -0.01697
H         -3.37933       -2.32945       -0.02214
