30
Coordinates from ORCA-job ./opt_b97-3c_parallel
N          4.31762       -0.61902       -0.05397
C          3.34079       -0.11218        0.00037
N          2.97363        1.16751        0.38237
C          1.60646        1.26727        0.26706
C          1.01775        2.45005        0.68118
C         -0.30231        2.85089        0.30903
C         -1.07741        2.24006       -0.61659
C         -1.94905        1.29328       -0.19694
N         -2.93810        1.78458       -0.22171
C         -1.52160       -0.05827       -0.01874
C         -2.41336       -1.16956        0.05726
N         -3.50917       -1.30096        0.08442
C         -1.77182       -2.38470        0.01399
C         -0.45029       -2.02326       -0.15366
N          0.12552       -2.96573       -0.23598
C         -0.21845       -0.60565       -0.13132
C          1.11493       -0.01893       -0.15176
N          2.20633       -0.84723       -0.29459
H          4.56199       -1.57335       -0.31530
H          5.15948       -0.20238        0.34120
H          1.61261        3.18706        1.21274
H         -0.63439        3.81402        0.68194
H         -0.96658        2.47511       -1.67458
H         -3.48319        2.63012       -0.38633
H         -3.50682        1.00305       -0.54472
H         -3.83748       -0.47831        0.58741
H         -4.16310       -2.05340        0.29485
H         -2.06649       -3.19198        0.69097
H         -0.35624       -3.84605       -0.05345
H          0.79361       -3.16091       -0.97935
