34
Coordinates from ORCA-job ./opt_b97-3c_parallel
N          3.28750        2.45549        1.38567
C          2.37927        1.96766        0.89585
C          1.19478        1.42018        0.29785
C          0.39590        2.50958       -0.05762
N          0.33073        3.62331       -0.04510
N         -0.69555        2.68742       -0.84333
C         -1.58196        1.64217       -1.07026
N         -2.12183        2.30124       -1.77843
C         -1.99248        0.94541        0.11339
C         -3.36841        0.78339        0.45678
C         -3.65877       -0.31857        1.21966
C         -2.47434       -1.01602        1.12021
N         -2.66032       -1.98358        1.61493
C         -1.42340       -0.28383        0.48109
C         -0.13720       -0.78075        0.05913
C          0.18708       -2.11286       -0.07810
C         -0.51080       -3.36835       -0.07532
N         -1.21982       -3.46976       -0.96682
C          1.60992       -2.16595       -0.32989
N          2.27421       -3.03471       -0.51123
C          2.13114       -0.88384       -0.29644
C          3.49211       -0.47596       -0.50789
N          4.55924       -0.11497       -0.69806
C          1.03103        0.02937       -0.10972
H          1.06174        3.71873        0.66524
H          0.20577        4.57240       -0.40234
H         -2.85751        1.59813       -1.87402
H         -2.22715        2.90082       -2.59951
H         -4.13032        1.43423        0.03856
H         -4.63954       -0.79346        1.13826
H         -2.21698       -2.87018        1.37685
H         -3.34487       -2.19989        2.33967
H          1.90287       -3.97391       -0.65225
H          3.28831       -3.11399       -0.59283
