31
Coordinates from ORCA-job ./opt_b97-3c_parallel
N          5.72065        0.38121        1.09466
C          4.60748        0.23055        0.88235
C          3.21939        0.07928        0.58830
C          2.31925        1.10530        0.53509
C          1.14340        0.48800        0.15997
C          0.05939        1.22811       -0.45804
N          0.24889        2.53848       -0.84236
C         -0.99813        3.12957       -0.98391
N         -1.28572        4.15621       -1.26330
N         -1.96846        2.24767       -0.53822
C         -1.34034        1.05810       -0.23975
C         -1.96248        0.09307        0.63736
C         -3.13649        0.48311        1.37810
N         -4.04945        0.83634        1.96624
C         -1.34585       -1.21707        0.72385
N         -1.88757       -1.92856        1.38552
C         -0.91700       -1.69180       -0.57775
C         -1.72941       -2.63186       -1.31710
N         -2.37180       -3.39087       -1.87792
C          0.46235       -1.81010       -0.71051
N          1.00174       -2.59008       -1.29250
C          1.34888       -0.86761       -0.04324
C          2.65940       -1.16544        0.21178
H          2.62074        2.07509        0.14497
H         -0.67015        4.90091       -1.58943
H         -2.18819        4.59330       -1.07668
H         -2.74186       -1.81813        1.93029
H         -1.80445       -2.92632        1.19175
H          0.53754       -3.49646       -1.34745
H          1.94259       -2.73060       -1.65602
H          3.20371       -2.10024        0.10830
