30
Coordinates from ORCA-job ./opt_b97-3c_parallel
N          4.35946       -1.37523       -1.13738
C          3.34721       -1.38968       -0.60759
C          2.08002       -1.35017        0.05501
C          1.61721       -2.43420        0.86398
N          0.79091       -1.71547        0.98843
C          0.03003       -1.00563        0.63607
C         -1.30303       -0.61135        0.25875
C         -2.37693       -1.55118        0.23709
N         -2.41798       -2.62475        0.49168
C         -3.55568       -1.03970       -0.25207
C         -3.22555        0.27111       -0.51656
N         -4.07589        0.88240       -0.87265
C         -1.86804        0.61079       -0.21585
C         -1.44096        1.99990       -0.22813
N         -0.36681        2.52176        0.41960
C          0.78682        1.89957        0.71728
N          0.83186        2.94037        1.09654
C          1.26120        1.07766       -0.35217
C          2.03371        1.61337       -1.42834
N          2.66216        2.07776       -2.26060
C          1.11565       -0.28378        0.04020
H          2.12590       -3.38815        1.07161
H         -1.56319       -2.98346        0.91385
H         -3.13074       -3.34201        0.61875
H         -4.51442       -1.30797        0.19675
H         -4.26206        1.45300       -1.69661
H         -4.95535        0.41229       -0.65710
H         -2.21323        2.73661       -0.49875
H          0.61465        3.65488        1.79234
H          1.84264        2.98768        0.96262
