25
Coordinates from ORCA-job ./opt_b97-3c_parallel
N         -3.91190       -0.58706        0.27085
C         -2.87167       -1.03898        0.14592
C         -1.54996       -1.54517       -0.03131
C         -1.37381       -2.89466       -0.15717
N         -0.06430       -2.99849       -0.35616
C          0.64242       -1.81005       -0.34399
N          2.02411       -1.69948       -0.51386
C          2.68339       -0.51352       -0.27026
N          3.75289       -0.73057       -0.45213
N          2.69077        0.71829        0.11674
C          1.99382        1.74659        0.47309
C          0.56510        1.78884        0.36143
C         -0.07968        3.04106        0.60588
N         -1.29906        2.84955        0.12062
C         -1.37063        1.59977       -0.33992
N         -2.37263        1.97080       -0.65252
C         -0.24187        0.68131       -0.15434
C         -0.34157       -0.78401       -0.12346
H         -2.02326       -3.78558       -0.14670
H          4.31569       -1.43539        0.03089
H          4.41261       -0.26027       -1.07624
H          2.76917        2.47253        0.76732
H         -0.10954        4.10294        0.90148
H         -3.17157        2.08210       -0.01923
H         -2.75506        2.20736       -1.57226
