28
Coordinates from ORCA-job ./opt_b97-3c_parallel
N         -4.26051       -0.76791        1.97323
C         -3.35139       -0.72513        1.28209
C         -2.23142       -0.69935        0.39284
C         -1.83595       -2.00454        0.17257
N         -0.96707       -2.57636       -0.67911
C         -0.01619       -1.74245       -1.23276
C          0.73661       -0.91275       -0.33061
C          2.12829       -1.14885       -0.09742
N          2.68196       -2.08465       -0.29970
C          2.64721        0.10944        0.38693
C          4.02379        0.33354        0.72857
N          5.12740        0.51475        0.96629
C          1.62199        1.13185        0.35754
N          1.81621        2.18855        0.62185
C          0.43762        0.45559       -0.08785
C         -0.79081        1.12555       -0.46692
C         -0.84525        2.46582       -0.70678
C         -2.18865        2.47931       -0.91909
N         -2.32103        1.39096       -0.82813
C         -2.01495        0.36689       -0.55540
H         -2.15727       -2.97101        0.59048
H          0.23142       -2.71641       -1.68144
H          2.44299       -3.07419       -0.30718
H          3.67952       -2.01977       -0.10333
H          1.00248        2.79190        0.72256
H          2.61838        2.70709        0.97572
H         -0.16606        2.93493       -1.41612
H         -2.73783        3.37356       -1.25005
