26
Coordinates from ORCA-job ./opt_b97-3c_parallel
N         -5.32330        1.73182       -0.33529
C         -4.27346        1.28664       -0.26801
C         -2.97127        0.71204       -0.14857
C         -2.77570       -0.68930       -0.12682
C         -1.37374       -0.79737        0.05253
C         -0.83064       -2.09426        0.31791
N         -1.28864       -3.09701        0.40965
N          0.38013       -2.26344        0.71000
C          1.32948       -2.32508       -0.15704
C          2.13446       -1.20989       -0.52184
C          1.78170        0.13692       -0.12722
C          2.81689        1.11719       -0.13598
C          4.21577        0.94759       -0.38162
N          5.33513        0.79111       -0.55142
C          2.17261        2.34621        0.20440
N          0.81040        2.13910        0.35443
C          0.61413        0.82308        0.16321
C         -0.80478        0.46470        0.09477
C         -1.81171        1.40845        0.03671
H         -3.52204       -1.47669       -0.16944
H         -1.60373       -2.60077        1.24109
H         -0.84161       -3.95350        0.73088
H          1.77481       -3.27914       -0.47637
H          3.09951       -1.41555       -0.97373
H          2.68898        3.31278        0.30202
H         -1.79846        2.29092        0.67279
