29
Coordinates from ORCA-job ./opt_b97-3c_parallel
N          4.42053        1.85664        0.13994
C          3.31588        1.57234        0.08057
C          1.92869        1.16782        0.02222
C          1.98502       -0.22195        0.01850
C          1.05033       -1.23076       -0.02903
C          1.42700       -2.55323       -0.05981
N          2.22876       -3.31839       -0.07444
N          0.42581       -3.44144       -0.08424
C         -0.72689       -2.66977       -0.06686
C         -0.37343       -1.27667       -0.03549
C         -1.41978       -0.28427       -0.00607
C         -2.78087       -0.72625        0.02172
C         -3.59366        0.45408        0.03105
N         -4.63942        0.81413        0.05120
N         -2.75892        1.55966        0.00124
C         -1.49961        1.08154       -0.01625
C         -0.53424        2.15083       -0.05890
C          0.85864        2.15397       -0.04017
N          1.15101        3.22546       -0.06425
H          2.98555       -0.66009        0.05027
H          3.14371       -3.03349       -0.42790
H          2.34708       -4.29282        0.20908
H         -1.22965       -3.65005       -0.08885
H         -3.15088       -1.74736        0.03666
H         -4.93191        1.77201       -0.14955
H         -5.49764        0.31996        0.30100
H         -1.03726        3.12620       -0.09260
H          2.14144        3.43017        0.07335
H          0.71920        4.12445       -0.27826
