28
Coordinates from ORCA-job ./opt_b97-3c_parallel
N         -0.62828       -3.03842        0.96929
C         -0.61186       -1.96263        0.70170
C         -1.67671       -1.51399       -0.15928
C         -2.00139       -0.10788       -0.19242
C         -3.23980        0.37967       -0.47059
C         -3.22910        1.67517       -0.18419
C         -2.04185        2.08969        0.24542
C         -1.20143        1.01841        0.21562
C          0.24201        1.07763        0.31491
C          0.84966        2.33308        0.63814
N          2.15211        2.13649        0.46205
C          2.32928        0.88964        0.02667
N          3.43549        0.96847       -0.03356
C          1.15068        0.06354       -0.17777
C          1.24338       -1.32795       -0.53838
N          2.00492       -1.88347       -1.11187
N          0.49475       -2.29653        0.01721
H         -1.57986       -3.17348        1.31720
H         -0.12583       -3.87899        1.26203
H         -2.45857       -2.21292       -0.45044
H         -4.09360       -0.18786       -0.83387
H         -4.09680        2.32502       -0.28762
H         -1.79823        3.10807        0.53784
H          0.62923        3.36529        0.95300
H          4.07727        0.20949       -0.26833
H          4.04188        1.78251        0.09453
H          2.22868       -1.45538       -2.01075
H          2.21437       -2.87633       -1.22010
