29
Coordinates from ORCA-job ./opt_b97-3c_parallel
N         -1.12064        4.71221       -0.56748
C         -1.06675        3.60136       -0.30512
C         -1.02007        2.21879        0.06363
C          0.11453        1.86052        0.73324
C          1.11008        1.04096        0.28340
C          2.47796        1.40725        0.13890
C          3.22646        0.21844       -0.15531
C          4.64604        0.32053       -0.32833
N          5.78079        0.40806       -0.43366
C          2.34393       -0.85045       -0.18390
N          2.77066       -1.84954       -0.39427
C          1.03441       -0.31672        0.08317
C         -0.14725       -1.15976        0.12775
N         -0.10413       -2.49972        0.04775
C         -1.32395       -3.02091        0.07872
C         -2.12848       -1.92125        0.14803
C         -3.40276       -2.57155        0.14080
N         -4.49750       -2.72752        0.43085
C         -1.47786       -0.66014        0.17859
N         -2.12070        0.24647        0.18722
C         -2.12238        1.31076       -0.12670
N         -3.12500        1.44983       -0.57413
H          0.22092        2.24095        1.74564
H          2.88877        2.40294        0.27458
H          2.01934       -2.53035       -0.29262
H          3.64691       -2.36846       -0.38393
H         -1.10728       -4.09798        0.01645
H         -3.30837        2.43971       -0.72655
H         -4.00527        0.95834       -0.71476
