27
Coordinates from ORCA-job ./opt_b97-3c_parallel
N         -4.60520        0.42142       -0.97085
C         -3.51595        0.72312       -0.79868
C         -2.15839        1.09221       -0.54171
C         -1.66786        2.35080       -0.37152
C         -0.39447        2.29749        0.00180
C          0.02007        0.99688        0.04397
C          1.39599        0.56827        0.25400
C          2.41513        1.51074        0.59434
C          3.63967        0.94109        0.44125
C          3.49353       -0.29942       -0.00549
C          2.16804       -0.59899       -0.12484
C          1.69999       -1.74059       -0.87621
C          0.39830       -2.30440       -0.67090
C         -0.24548       -1.88745        0.53654
N         -0.47007       -2.60675        1.34029
C         -1.28592       -1.19766       -0.15616
C         -1.10885        0.16286       -0.25781
H         -2.24241        3.26521       -0.49818
H          0.21832        3.17071        0.20478
H          2.22968        2.55414        0.82523
H          4.58961        1.43212        0.63764
H          4.31051       -0.98528       -0.21629
H          2.40559       -2.30690       -1.47585
H          0.11980       -3.19285       -1.23100
H         -1.44258       -2.90200        1.40257
H          0.10083       -3.44808        1.39386
H         -2.22984       -1.67430       -0.40746
