26
Coordinates from ORCA-job ./opt_b97-3c_parallel
N         -4.61494       -0.37602        0.39819
C         -3.50192       -0.52761        0.18700
C         -2.09693       -0.71158       -0.02205
C         -1.57573       -2.00805       -0.31827
N         -1.04312       -2.94242       -0.55780
C          0.00367       -2.69145       -0.33218
C          1.21974       -2.01040       -0.02843
C          2.43541       -2.61213        0.11157
N          3.21780       -1.56036        0.31912
C          2.59542       -0.32511        0.31527
C          1.22300       -0.59182        0.07605
C          0.22466        0.38129       -0.00015
C          0.57219        1.77361        0.02579
C          1.76755        2.56774        0.08613
N          2.76417        3.05067       -0.19779
C         -0.54983        2.55087       -0.03049
N         -0.74405        3.88033       -0.11053
C         -1.57101        1.70480       -0.03711
C         -1.16465        0.39850       -0.04172
H         -2.40306       -2.73839       -0.32154
H          0.21868       -3.76834       -0.42682
H          2.93979       -3.58991        0.09844
H          3.50205        0.26735        0.51089
H          0.03661        4.48861       -0.35345
H         -1.57296        4.24413       -0.57699
H         -2.60980        2.02262       -0.10415
