28
Coordinates from ORCA-job ./opt_b97-3c_parallel
N          5.41569       -0.23889        0.81402
C          4.34523       -0.46894        0.48615
C          3.02129       -0.76532        0.03462
C          2.59674       -1.91376       -0.56109
C          1.27906       -1.88204       -0.70509
C          0.81300       -0.67941       -0.26339
C         -0.56604       -0.26936       -0.07035
C         -1.62233       -1.23997        0.01131
N         -1.62678       -2.34612        0.04481
C         -2.84885       -0.47855        0.08508
C         -4.16869       -1.04056        0.17562
N         -5.20837       -1.50627        0.26945
C         -2.57402        0.93370       -0.01173
N         -3.32718        1.74426       -0.05675
C         -1.14800        1.05160       -0.08988
C         -0.61396        2.34474       -0.48421
N          0.66921        2.74092       -0.46414
C          1.62173        2.09303        0.20021
N          1.85100        1.13456        1.02367
C          1.89424        0.08836        0.26818
H          3.23997       -2.73759       -0.86162
H          0.68814       -2.66550       -1.17239
H         -2.45077       -2.77703        0.46074
H         -0.84788       -2.52359        0.67608
H         -4.29461        1.50800       -0.27186
H         -3.24002        2.75383       -0.15614
H         -0.39865        3.38516       -0.77038
H          2.54050        2.67930        0.04501
