27
Coordinates from ORCA-job ./opt_b97-3c_parallel
N         -5.32942        1.67762       -0.07251
C         -4.24949        1.30474       -0.09762
C         -2.89409        0.85510       -0.09031
C         -1.81377        1.75755       -0.04168
C         -0.65980        0.92072       -0.02822
C          0.56067        1.68616        0.00756
C          1.90285        1.33995        0.02735
C          2.60728        2.60126        0.04189
N          3.30837        3.50101       -0.04396
C          2.64394        0.09553        0.04640
N          3.75524        0.11246        0.07277
C          2.30209       -1.24665        0.04421
C          1.02991       -1.90859       -0.00840
C          1.11657       -3.33010       -0.01257
C         -0.22213       -3.81027       -0.07854
N         -1.08104       -2.72737       -0.11023
C         -0.30903       -1.62361       -0.06237
C         -1.08226       -0.39848       -0.06327
C         -2.46568       -0.43334       -0.10166
H         -1.86714        2.84227       -0.01711
H          0.32548        2.75190        0.01442
H          4.51513       -0.56495        0.06354
H          4.18930        1.03361        0.03597
H          3.10424       -1.99112        0.07460
H          2.01410       -3.93973        0.02454
H         -0.54779       -4.86088       -0.10047
H         -3.03445       -1.19250        0.43156
