32
Coordinates from ORCA-job ./opt_b97-3c_parallel
N          3.33733       -3.38707        0.09400
C          2.93554       -2.32831       -0.05976
C          2.38325       -1.01764       -0.21940
C          2.94584        0.19701       -0.54357
N          3.98657        0.47599       -0.78518
C          2.08734        1.26772       -0.46234
C          0.89763        0.68786       -0.11275
C         -0.27269        1.46849        0.25549
C         -0.13641        2.87788        0.45270
N          0.41784        3.82104        0.57189
N         -1.23752        2.70274        0.42341
C         -2.30234        2.48111        0.16672
C         -1.66238        1.20288        0.05877
C         -2.29426        0.06949       -0.44633
N         -3.24314        0.23531       -0.99947
C         -1.84653       -1.22752       -0.26211
C         -2.41609       -2.40049       -0.87358
N         -2.85898       -3.35513       -1.31691
C         -1.07075       -1.39966        0.93813
N         -0.77949       -2.28648        1.54070
N          0.22886       -1.59685        0.70433
C          1.01253       -0.72981        0.02585
H          4.45372        1.32865       -1.09275
H          4.67977       -0.26838       -0.85566
H          2.11321        2.07029       -1.20009
H          1.41709        3.71324        0.73353
H          0.16410        4.74741        0.91135
H         -3.26314        3.00678        0.05562
H         -3.31763        1.14569       -1.45359
H         -3.96442       -0.34933       -1.42241
H         -0.28934       -2.88384        2.20806
H         -1.75424       -2.58777        1.57193
