31
Coordinates from ORCA-job ./opt_b97-3c_parallel
N         -4.13032       -2.08671       -1.92843
C         -3.23495       -1.66056       -1.36131
C         -2.11932       -1.08508       -0.66801
C         -0.92325       -1.73008       -0.88678
C          0.30003       -1.43098       -0.17010
C          1.24358       -2.39900       -0.03920
C          2.16656       -1.43584        0.27602
C          3.42345       -2.12668        0.27420
N          4.44297       -2.64620        0.27131
C          2.05296       -0.12988        0.68721
N          2.93755        0.54130        1.44560
C          0.77718       -0.11303        0.19697
C          0.26051        1.14650       -0.15561
C          1.08088        2.24195       -0.25080
C          0.25275        3.26066       -0.66750
N          0.38130        4.34424       -0.83797
N         -1.01670        2.84008       -0.79155
C         -1.06157        1.54995       -0.49029
C         -2.31188        0.90117       -0.24049
C         -2.20994       -0.29969        0.52745
N         -2.68298       -0.21799        1.52006
H         -0.93614       -2.64929       -1.46949
H          1.41183       -3.12617       -0.83474
H          3.84530        0.11820        1.64535
H          2.63305        1.00687        2.29894
H          2.08149        2.15520       -0.67246
H         -0.33599        5.05323       -0.68567
H          1.26653        4.84784       -0.89609
H         -3.24544        1.40948       -0.47221
H         -2.86328       -1.21996        1.58254
H         -3.48125        0.23978        1.95965
