31
Coordinates from ORCA-job ./opt_b97-3c_parallel
N          4.64747       -1.81400       -0.85418
C          3.69857       -1.19917       -0.70154
C          2.52851       -0.41412       -0.45984
C          1.22448       -0.79648       -0.26905
C          0.99724       -1.63605        0.78399
C         -0.08540       -2.49175        0.76073
N         -1.13169       -2.64476       -0.07594
C         -1.85520       -1.57077       -0.60032
N         -2.52782       -2.35504       -0.99505
C         -1.81892       -0.21025       -0.09919
C         -2.97854        0.62482       -0.06681
N         -4.02889        0.35092       -0.27277
C         -2.72027        1.92750        0.29280
C         -1.34286        1.96585        0.31556
N         -1.03784        3.02185        0.43602
C         -0.73663        0.68256        0.12653
C          0.67322        0.43466       -0.03928
N          1.53035        1.52720       -0.03556
C          2.68410        0.93705       -0.31369
N          3.34897        1.82451       -0.31274
H          1.76128       -1.77384        1.54659
H          0.20480       -3.28220        1.47196
H         -2.81007       -3.24931       -1.40043
H         -3.33014       -1.73396       -1.12478
H         -4.63283       -0.04605        0.44801
H         -4.50217        1.19680       -0.59395
H         -3.31709        2.41532        1.06778
H         -1.75569        3.61726        0.85193
H         -0.35246        3.66564        0.04247
H          3.29614        2.80626       -0.59058
H          4.34759        1.62699       -0.22015
