27
Coordinates from ORCA-job ./opt_b97-3c_parallel
N          4.73572       -0.22815       -0.37196
C          3.60171       -0.22099       -0.23829
C          2.18164       -0.26471       -0.08094
C          1.49718        0.63637       -0.84928
C          0.71384        1.63872       -0.34971
C          1.00395        2.95960       -0.20270
C         -0.08409        3.56633        0.25128
C         -1.08520        2.71483        0.42153
C         -0.65502        1.47670        0.05121
C         -1.30544        0.27181        0.04888
C         -2.55311        0.22979       -0.37777
C         -3.11461       -1.00485       -0.29253
N         -4.07507       -1.51391       -0.49688
N         -2.03571       -1.71554        0.22306
C         -0.89393       -0.95698        0.45422
N          0.26507       -1.36723        0.86539
C          1.55321       -1.26449        0.74068
N          1.67758       -2.12736        1.41731
H          1.70842        0.65535       -1.91837
H          1.95575        3.43889       -0.42347
H         -0.14644        4.63237        0.45773
H         -2.08005        2.97306        0.77792
H         -3.09481        1.10049       -0.74592
H         -4.97488       -1.03063       -0.52555
H         -4.29297       -2.49611       -0.67316
H          1.59134       -3.02413        1.89434
H          2.67854       -1.95046        1.33060
