27
Coordinates from ORCA-job ./opt_b97-3c_parallel
N         -2.99095        3.19965       -1.11421
C         -2.19156        2.48995       -0.71473
C         -1.21748        1.55769       -0.20516
C         -0.34193        2.09718        0.80945
C          0.94473        1.56058        1.14802
C          1.70032        1.16926       -0.00758
N          2.89931        1.64641       -0.20835
C          3.49643        0.62687       -0.74697
C          2.79852       -0.47764       -0.92264
C          1.57294       -0.18104       -0.45413
C          0.72610       -1.07392        0.28582
C          1.07216       -2.36877        0.54717
N         -0.08385       -3.01565        0.61245
C         -1.18620       -2.21600        0.37866
N         -1.96447       -2.99800        0.43607
C         -0.68183       -0.89215        0.15926
C         -1.41900        0.17804       -0.35572
N         -2.35351       -0.20386       -0.83157
H         -0.57267        3.07534        1.22241
H          1.47199        2.19693        1.85376
H          4.53327        0.93060       -0.95942
H          3.13955       -1.40832       -1.36977
H          1.99804       -2.93968        0.71915
H         -2.60223       -2.25417        0.14764
H         -2.54289       -3.80940        0.65073
H         -3.10113        0.46930       -0.65182
H         -2.24283       -0.22547       -1.84648
