29
Coordinates from ORCA-job ./opt_b97-3c_parallel
N         -5.77748       -1.60115        0.03806
C         -4.72361       -1.16053        0.05701
C         -3.38968       -0.65230        0.05968
C         -3.05829        0.67693        0.02657
C         -1.68510        0.65674       -0.04049
C         -0.98943        1.67991       -0.62100
C         -0.16684        2.56517        0.01133
C         -0.50693        3.94902       -0.08737
N         -0.74617        5.06049       -0.19832
C          1.06598        2.14418        0.60226
N          2.02047        2.32128        1.12426
N          1.41323        0.89895        0.56718
C          1.37830       -0.34578        0.21138
C          2.43003       -1.21373        0.09301
C          3.83033       -0.95715        0.24246
N          4.64814       -1.64091       -0.17366
C          1.81460       -2.47387       -0.17788
N          2.04881       -3.54032       -0.36437
N          0.43588       -2.42800       -0.22342
C          0.18645       -1.12054       -0.02136
C         -1.17814       -0.62614        0.03059
C         -2.27031       -1.52749        0.07948
H         -3.64966        1.39098       -0.54383
H         -1.19253        1.86973       -1.67349
H          2.87984        2.40383        1.66486
H          1.60826        3.25312        1.09936
H          1.74222       -4.51071       -0.43259
H          3.06263       -3.55439       -0.49473
H         -2.26663       -2.61326        0.10079
