31
Coordinates from ORCA-job ./opt_b97-3c_parallel
N         -5.28867        1.63241        1.09747
C         -4.18160        1.47365        0.86528
C         -2.80903        1.23188        0.55734
C         -1.90464        2.16635        0.14068
C         -0.74285        1.44953       -0.07487
C          0.34810        1.98653       -0.88567
N          0.12402        2.90039       -1.47078
C          1.71698        1.93620       -0.58547
C          2.82458        2.78772       -0.95104
N          3.42603        3.75925       -0.93460
C          2.36600        1.06004        0.37327
C          1.92084       -0.22110        0.60173
C          2.75714       -0.95485        1.50370
N          3.42096       -1.58139        2.19053
C          1.19550       -0.88052       -0.44487
N          1.02294       -2.16588       -0.51647
C          0.32668       -3.26015       -0.53591
N          0.92485       -4.17201       -0.72545
C         -0.67336       -2.34449       -0.28711
C         -1.83344       -3.18707       -0.21251
N         -2.52416       -3.61175       -1.01987
C         -0.13836       -1.01362       -0.19671
C         -0.98527        0.10365        0.15013
C         -2.26871       -0.07606        0.57268
H         -1.87860        3.15542        0.59421
H          0.74553        3.70822       -1.51680
H         -0.80294        3.24198       -1.72102
H          3.30680        1.36137        0.84056
H          1.63563       -4.83497       -0.41487
H          0.13778       -4.73513       -1.05192
H         -2.82528       -0.97356        0.81645
