29
Coordinates from ORCA-job ./opt_b97-3c_parallel
N          4.52574        0.56999       -0.73370
C          3.59426       -0.06956       -0.56070
C          2.43710       -0.89017       -0.38166
C          2.49449       -2.23424       -0.61274
N          1.30613       -2.73609       -0.29420
C          0.43375       -1.70526        0.00398
C         -0.79926       -1.99596        0.67914
C         -1.75815       -0.92800        0.86679
N         -2.50628       -1.53627        1.41525
C         -2.01577       -0.25175       -0.38751
C         -3.14779       -0.63947       -1.19646
N         -4.06427       -0.93409       -1.81348
C         -1.58433        1.06715       -0.44752
N         -2.08390        1.88549       -1.00965
C         -0.40500        1.48945        0.28692
C         -0.11504        2.86611        0.54381
C          1.15093        2.97188        1.00313
C          1.67577        1.75470        1.00187
C          0.77520        0.81676        0.55732
C          1.12306       -0.46116       -0.03868
H          3.28594       -2.95746       -0.85987
H         -0.92755       -3.02336        1.03822
H         -3.37944       -1.06264        1.18943
H         -2.73167       -2.52344        1.52336
H         -1.72997        2.77682       -1.35037
H         -3.09320        1.89407       -1.14672
H         -0.77764        3.70141        0.34195
H          1.63853        3.88455        1.34001
H          2.67234        1.53283        1.37458
