27
Coordinates from ORCA-job ./opt_b97-3c_parallel
N          4.15830        1.87105        0.28539
C          3.10418        1.44119        0.19671
C          1.78583        0.88508        0.12991
C          0.82773        1.73298        0.56540
C          0.12100        2.30149       -0.44115
C         -1.16069        1.85770       -0.63913
C         -1.63606        0.58548       -0.14010
C         -3.04934        0.39551       -0.06260
N         -3.97823        0.97505       -0.20750
C         -3.24072       -0.89594        0.30959
C         -2.06410       -1.49707        0.41851
C         -1.03255       -0.63856        0.13003
C          0.26173       -1.14234       -0.05061
C          0.53761       -2.47827       -0.15573
C          1.84283       -2.61722       -0.35935
C          2.47318       -1.45141       -0.38645
C          1.53538       -0.48885       -0.18367
H          0.88345        2.20137        1.54629
H          0.43386        3.25846       -0.84708
H         -1.88675        2.51254       -1.11178
H         -4.83595        0.76268        0.29820
H         -3.58970        1.81792        0.21119
H         -4.19901       -1.37006        0.51936
H         -1.95850       -2.52575        0.75109
H         -0.17059       -3.30171       -0.13208
H          2.33642       -3.57639       -0.49609
H          3.53993       -1.30043       -0.53568
