26
Coordinates from ORCA-job ./opt_b97-3c_parallel
N          4.11968        2.30609       -0.31547
C          3.03424        1.96754       -0.20190
C          1.68475        1.49468       -0.07459
C          0.66094        2.48730        0.10454
C         -0.76762        2.43022        0.20640
C         -1.70846        1.35758        0.06685
C         -3.09219        1.70372        0.08652
C         -3.84502        0.58484       -0.04865
C         -3.04005       -0.46387       -0.13963
C         -1.73034       -0.06606       -0.06580
C         -0.63809       -0.99582       -0.00975
C         -0.95460       -2.39055        0.01501
N          0.20512       -3.05932        0.05366
C          1.26670       -2.24284        0.04565
N          2.06033       -3.01191        0.06978
C          0.78275       -0.89057        0.00303
C          1.72570        0.10899       -0.07701
H          1.03927        3.50548        0.15606
H         -1.22175        3.40958        0.33112
H         -3.46214        2.71952        0.18999
H         -4.93141        0.55737       -0.09579
H         -3.39462       -1.48180       -0.28139
H         -1.73010       -3.17138        0.01930
H          2.19566       -4.02251        0.05643
H          2.97883       -2.60850        0.25172
H          2.72852       -0.31377       -0.14647
