27
Coordinates from ORCA-job ./opt_b97-3c_parallel
N          4.35996        2.43498       -0.11672
C          3.48623        1.69894       -0.08618
C          2.36143        0.81310       -0.05089
C          1.11730        1.27627       -0.35939
C          0.30373        0.18614       -0.15380
C         -1.14400        0.42767       -0.04044
C         -1.61941        1.70428        0.09024
C         -2.96983        1.57412        0.29854
N         -3.80875        2.27927        0.45791
N         -3.37477        0.25490        0.17826
C         -2.24990       -0.49815       -0.05077
N         -2.27978       -1.82496       -0.43831
C         -1.07545       -2.29700       -0.84958
C         -0.39871       -2.89133        0.24259
C          0.75994       -2.27119        0.61426
C          1.09113       -0.91810        0.19922
C          2.41341       -0.56709        0.30261
N          3.33636       -1.11030        0.57942
H          0.97619        1.92747       -1.22006
H         -1.05335        2.46293        0.62905
H         -4.81416        2.11969        0.54637
H         -3.69700        3.29395        0.50323
H         -1.82241       -3.09632       -0.97954
H         -0.68977       -3.87712        0.59880
H          1.49188       -2.84954        1.17286
H          4.20032       -0.57094        0.62856
H          3.61077       -2.07926        0.42526
