33
Coordinates from ORCA-job ./opt_b97-3c_parallel
N         -3.24302       -3.87251        0.76418
C         -2.61185       -2.93678        0.59155
C         -1.83215       -1.76664        0.32696
C         -2.39061       -0.45552        0.48910
C         -1.69099        0.76638        0.13967
C         -2.45126        1.97952        0.11474
N         -3.50270        2.26594        0.29728
C         -1.73852        3.10966       -0.21900
C         -0.47661        2.56387       -0.26159
N          0.17162        3.45588       -0.37215
C         -0.39025        1.14373       -0.09296
C          0.91602        0.50499        0.03895
N          2.05019        1.22711        0.03306
C          3.07139        0.43511        0.36911
N          3.81604        1.24807        0.26371
C          2.62571       -0.83622        0.62976
C          3.66763       -1.75077        0.97029
N          4.52950       -2.45210        1.23338
C          1.27548       -0.84336        0.39599
C          0.47791       -1.96162        0.38194
C         -0.65652       -1.84036       -0.48055
N         -0.38629       -2.28332       -1.45670
H         -3.42629       -0.38836        0.81025
H         -4.17231        1.62666        0.72272
H         -3.95968        3.17609        0.25439
H         -2.10042        3.78410       -1.00168
H          0.30003        3.96523       -1.24567
H         -0.06118        4.15349        0.33527
H          3.90816        2.21117       -0.06131
H          4.75745        0.85443        0.25218
H          0.86044       -2.93062        0.69492
H         -1.31575       -2.65659       -1.65007
H          0.26847       -3.02780       -1.69472
