28
Coordinates from ORCA-job ./opt_b97-3c_parallel
N          1.40262        3.36242        0.05616
C          0.98168        2.33667        0.01282
C          1.96951        1.36718        0.12790
C          1.96083       -0.01077        0.11519
N          3.21463       -0.57654        0.18490
C          3.07867       -1.94657        0.18479
N          1.78936       -2.06035        0.14846
C          1.03474       -1.01239        0.08153
C         -0.39339       -1.01291        0.06051
C         -1.08450       -2.25483        0.12848
C         -2.44834       -2.20590        0.11981
C         -2.57082       -0.84151       -0.04463
N         -3.67506       -0.77232       -0.12156
C         -1.34889       -0.05891       -0.06672
C         -1.38795        1.32006       -0.22982
N         -2.35552        1.83695       -0.40685
C         -0.45482        2.35493       -0.20135
H          0.74627        4.01169        0.48564
H          2.30826        3.54145        0.48598
H          2.98374        1.76140        0.23070
H          3.90191       -2.67566        0.22148
H         -0.55758       -3.19999        0.21211
H         -2.99803       -2.76298        0.88282
H         -4.44639       -1.15991        0.41807
H         -3.46441        0.13885        0.28353
H         -2.74592        1.12076       -1.01861
H         -2.49716        2.72540       -0.88361
H         -0.82054        3.38567       -0.32417
