26
Coordinates from ORCA-job ./opt_b97-3c_parallel
N          5.12549       -0.27190       -0.69207
C          4.01965       -0.34106       -0.41207
C          2.65019       -0.44345       -0.02083
C          1.87297       -1.61101       -0.30094
N          0.65121       -1.70973        0.11165
C         -0.45707       -1.03954        0.07171
C         -1.72288       -1.72618        0.02897
C         -1.87502       -3.15033        0.04303
N         -2.02884       -4.28304        0.05072
C         -2.88251       -0.99159       -0.04311
C         -2.29575        0.24353       -0.11485
C         -3.41775        1.11981       -0.27175
N         -4.12862        1.94327        0.07877
C         -0.87727        0.25558       -0.01122
C         -0.10864        1.48244       -0.07587
C         -0.51231        2.75922       -0.31173
C          0.56682        3.52775       -0.20930
C          1.65965        2.83023        0.08690
C          1.29551        1.52523        0.19617
C          2.13766        0.58442        0.71086
H          2.18836       -2.51338       -0.84603
H         -3.69693       -1.19749        0.65193
H         -1.51638        3.09916       -0.55006
H          0.55719        4.60550       -0.35352
H          2.66151        3.23289        0.21828
H          2.38621        0.63871        1.76786
