34
Coordinates from ORCA-job ./opt_b97-3c_parallel
N          0.43327        4.70899       -1.70556
C          0.38940        3.65967       -1.25545
C          0.33856        2.36043       -0.65321
C          1.07492        2.11881        0.55413
C          1.55725        0.80957        0.88482
C          2.51182        0.72912        1.94942
N          3.27212        0.70022        2.80222
C          1.49127       -0.16098       -0.18270
C          2.58108       -1.05278       -0.42616
C          3.98893       -0.81282       -0.30558
N          5.11701       -0.65275       -0.21761
C          1.95861       -2.26348       -0.85379
N          2.39079       -3.22975       -1.17179
C          0.59254       -2.27436       -0.77157
C          0.33870       -0.99221       -0.35120
C         -0.96840       -0.53042        0.06590
C         -2.02826       -1.46084        0.34939
N         -2.05560       -2.55394        0.51873
C         -3.23995       -0.67682        0.37349
C         -4.56071       -1.19377        0.61827
N         -5.62256       -1.57672        0.80446
C         -2.94900        0.68963        0.01752
N         -3.71742        1.47758       -0.10625
C         -1.52401        0.77572       -0.15170
C         -0.96471        1.89607       -0.74772
H          1.55375        2.96005        1.04911
H          2.18268       -4.05924       -1.72425
H          3.38408       -3.03773       -1.29750
H         -0.02529       -2.74248       -1.53764
H         -2.83607       -3.15033        0.78922
H         -1.20622       -3.10289        0.63382
H         -3.57429        2.48088       -0.00825
H         -4.71267        1.30687        0.03141
H         -1.68013        2.54317       -1.25465
