30
Coordinates from ORCA-job ./opt_b97-3c_parallel
N          0.71386        3.52985       -0.86454
C          0.58427        2.48702       -0.50904
C          1.69667        1.66248       -0.67088
C          1.98504        0.39891       -0.01427
C          3.24791       -0.08887        0.12859
C          3.16414       -1.37390        0.44890
C          1.90917       -1.79830        0.50918
C          1.11386       -0.73363        0.20820
C         -0.23688       -0.89891       -0.07157
C         -0.85505       -2.11151       -0.24320
N         -0.85437       -3.22217       -0.30612
N         -2.14349       -1.94420       -0.52639
C         -2.29488       -0.55988       -0.51419
N         -3.38257       -0.51045       -0.75187
C         -1.12990        0.12634       -0.19579
C         -1.00053        1.15408        0.70473
N         -1.44919        1.61839        1.61325
N         -0.34977        2.36006        0.51771
H          1.34776        3.66122       -1.65803
H          0.52229        4.48857       -0.55174
H          2.56835        2.09596       -1.16521
H          4.17201        0.48010        0.03914
H          4.02931       -2.00320        0.65341
H          1.60539       -2.80334        0.79269
H         -1.45377       -4.03676       -0.47678
H          0.08998       -3.61931       -0.32564
H         -4.02579       -1.30981       -0.80634
H         -3.97746        0.27199       -1.04265
H         -1.29200        1.25029        2.55719
H         -1.93365        2.50605        1.78701
