30
Coordinates from ORCA-job ./opt_b97-3c_parallel
N         -4.38240       -2.13215        0.61794
C         -3.34881       -1.69660        0.39754
C         -2.03830       -1.16700        0.17136
C         -1.06948       -2.05131        0.49894
C         -0.52856       -2.57875       -0.62533
C          0.75962       -2.22431       -0.93892
C          1.39899       -1.02775       -0.41892
C          2.83658       -1.00131       -0.40609
N          3.52401       -1.83749       -0.64415
C          3.17844        0.33906        0.01340
C          4.57146        0.68470        0.16180
N          5.56854        0.71079        0.72326
C          2.02387        1.08813        0.17504
N          2.18119        2.14683        0.45965
C          0.90432        0.22277       -0.08722
C         -0.43492        0.80713       -0.16465
N         -0.64299        2.17441       -0.27495
C         -1.93521        2.47003       -0.38509
C         -2.61137        1.28775       -0.29734
C         -4.04073        1.25008       -0.27888
N         -5.18335        1.25606       -0.27296
C         -1.71511        0.19146       -0.15840
H         -1.09394       -2.61382        1.43301
H         -0.95694       -3.47999       -1.05355
H          1.35077       -2.92730       -1.51841
H          3.20335       -2.74649       -0.31592
H          4.41191       -1.65206       -0.17976
H          1.31073        2.60565        0.19595
H          2.86008        2.88291        0.64317
H         -2.34301        3.48642       -0.49430
