29
Coordinates from ORCA-job ./opt_b97-3c_parallel
N         -4.11548       -0.05373       -0.54215
C         -3.16907       -0.66243       -0.35807
C         -1.93908       -1.35333       -0.12405
C         -1.77663       -2.70291       -0.19248
C         -0.49341       -3.01040       -0.05414
C          0.24158       -1.87172        0.08029
C          1.61337       -1.88485        0.53009
C          2.41593       -0.68885        0.59187
N          3.45471       -1.01348        0.78996
N          2.54057        0.01212       -0.55067
C          1.77388        1.06897       -0.88434
N          2.59756        1.28958       -1.59420
C          0.72118        1.44791        0.02308
C          0.35644        2.81565        0.20527
N         -0.90729        2.80872        0.67325
C         -1.45252        1.58006        0.75514
N         -2.40639        2.03470        1.09069
C         -0.42504        0.66550        0.33363
C         -0.65146       -0.74237        0.05658
H         -2.58203       -3.42643       -0.30972
H         -0.09493       -4.02369       -0.04119
H          2.02147       -2.84681        0.84329
H          3.55442       -1.85281        1.36334
H          4.40240       -0.77610        0.49665
H          2.23661        1.88838       -2.34035
H          3.53414        1.03362       -1.91107
H          0.78902        3.81134        0.01961
H         -3.17958        1.48729        0.69965
H         -2.85795        2.70673        1.71307
