32
Coordinates from ORCA-job ./opt_b97-3c_parallel
N          4.27050        2.37648       -0.02335
C          3.44778        1.58715        0.03517
C          2.37469        0.63861        0.08403
C          1.04372        0.90113       -0.11540
N          0.59191        2.10842       -0.54028
C         -0.75166        2.38281       -0.46658
N         -0.29347        3.30467       -0.88190
C         -1.27283        2.22406        0.85930
C         -2.25636        1.18129        0.97424
N         -3.02132        1.48939        1.70928
C         -2.26318        0.10552        0.00686
C         -3.38819       -0.64310       -0.20930
N         -2.92381       -1.79880       -0.66443
C         -1.54713       -1.87738       -0.74858
N         -1.71729       -2.91864       -1.09385
C         -1.04865       -0.60394       -0.31817
C          0.30921       -0.35326       -0.05576
C          1.24169       -1.35015        0.19359
C          1.06701       -2.76026        0.38207
N          0.86349       -3.87606        0.51358
C          2.55308       -0.76532        0.31294
N          3.51757       -1.27168        0.50831
H         -1.08338        3.94158       -0.76188
H          0.40750        3.86167       -1.37906
H         -1.25829        3.07279        1.54561
H         -3.29447        2.37984        2.12918
H         -3.49957        0.77850        2.26454
H         -4.46857       -0.45832       -0.09699
H         -2.28732       -3.47774       -1.73190
H         -1.07078       -3.58769       -0.66691
H          4.42969       -0.81433        0.50672
H          3.69449       -2.25155        0.73002
