32
Coordinates from ORCA-job ./opt_b97-3c_parallel
N         -5.65088       -0.42483       -1.21153
C         -4.58224       -0.20267       -0.87663
C         -3.23930        0.09551       -0.49050
C         -2.89032        1.33247        0.10652
C         -1.50131        1.17480        0.35121
C         -0.82524        2.09920        1.22968
N         -1.31240        2.86375        1.86348
C          0.61517        2.10127        1.26301
C          1.16219        2.08247       -0.07261
N          1.59720        3.06615       -0.34648
C          1.86006        0.86604       -0.43544
C          3.01352        0.88680       -1.29566
N          3.90369        0.90187       -2.01265
C          1.40112       -0.37927        0.14008
C          2.18553       -1.51155        0.21299
C          3.54577       -1.94362        0.08477
N          4.58166       -1.71200        0.50874
C          1.46945       -2.64340        0.52618
C          0.18095       -2.19767        0.42644
C         -0.86932       -3.15594        0.59039
N         -1.69554       -3.93814        0.69725
C          0.04002       -0.77959        0.27254
C         -1.12666       -0.09225       -0.04633
C         -2.19110       -0.77454       -0.59156
H         -3.54026        2.16249        0.36645
H         -2.12926        2.36756        2.21448
H         -1.08945        3.58459        2.54725
H          1.02894        2.84988        1.94212
H          1.42600        4.01915       -0.03162
H          2.56285        3.03436       -0.66957
H          1.74159       -3.63069        0.15105
H         -2.06417       -1.37963       -1.48736
