28
Coordinates from ORCA-job ./opt_b97-3c_parallel
N          4.40596       -1.95149       -0.74569
C          3.41987       -1.40425       -0.56079
C          2.20953       -0.68049       -0.32153
C          1.00354       -1.32568       -0.34386
C          0.13635       -0.29899       -0.06177
C         -1.28963       -0.46110        0.12359
C         -1.90616       -1.73894        0.33639
C         -1.29909       -2.97925        0.70694
N         -0.78187       -3.94985        1.01480
C         -3.30960       -1.54650        0.13753
N         -3.55357       -0.24622       -0.26758
C         -2.35386        0.43004       -0.24456
C         -2.30671        1.70532       -0.91668
C         -1.34888        2.68072       -0.75234
N         -0.40188        2.88873        0.17553
C          0.28302        1.99642        0.89637
N          0.61106        2.93607        1.38008
C          0.81412        0.86836        0.17775
C          2.16566        0.70242        0.04414
N          2.99695        1.41612        0.21161
H          0.77969       -2.05707       -1.11873
H         -4.07772       -2.32968        0.22756
H         -3.19962        1.96232       -1.48176
H         -1.75429        3.53607       -1.31510
H          0.60579        3.79855        1.92418
H          1.45768        2.43584        1.65421
H          3.33358        2.31180       -0.14123
H          3.74607        0.74882        0.02309
