27
Coordinates from ORCA-job ./opt_b97-3c_parallel
N         -4.92092        1.15506       -0.54931
C         -3.84840        0.78175       -0.43433
C         -2.49677        0.34116       -0.25395
C         -1.44975        1.16988       -0.53532
C         -0.34768        0.42931       -0.17086
C          0.92950        1.08584        0.10011
C          1.09837        2.42261        0.24645
C          2.38525        2.75100        0.30374
N          3.09616        1.64296        0.12951
C          2.25612        0.55479       -0.00729
N          2.66627       -0.67925       -0.50414
C          1.75802       -1.70466       -0.56135
N          2.65729       -2.17219       -1.00988
C          1.30411       -2.08706        0.73823
C         -0.01704       -1.84212        0.99751
C         -0.76164       -0.81344        0.30192
C         -2.12737       -0.92447        0.28917
N         -2.81094       -1.73110        0.61389
H         -1.53597        2.23963       -0.36174
H          0.29643        3.14690        0.36613
H          2.88202        3.72502        0.43876
H          2.23386       -3.10207       -1.00306
H          3.47777       -2.26309       -1.61368
H          1.83626       -2.87425        1.26887
H         -0.54388       -2.51935        1.66511
H         -3.79778       -1.47571        0.57101
H         -2.77517       -2.74631        0.54275
