29
Coordinates from ORCA-job ./opt_b97-3c_parallel
N         -3.98127        3.51787        0.28090
C         -3.12335        2.77038        0.18460
C         -2.06382        1.80553        0.09532
C         -2.65137        0.55006        0.09804
C         -2.13676       -0.72159        0.01745
C         -3.12221       -1.77227       -0.00688
N         -2.54008       -2.98935       -0.07241
C         -1.18251       -2.73463       -0.08372
N         -0.97916       -3.82724       -0.13228
C         -0.91999       -1.32960       -0.02752
C          0.43813       -0.85625        0.00136
N          1.52163       -1.57107        0.01181
C          2.76576       -1.18501        0.05929
N          3.35835       -2.12496        0.10118
C          2.39982        0.14878        0.01654
C          3.71342        0.73838        0.04400
N          4.67280        0.83692        0.65708
C          1.03731        0.37378       -0.01398
C          0.53423        1.67278       -0.05925
C          1.42255        2.80449       -0.17179
N          1.92636        3.15432       -1.13727
C         -0.71233        2.29970       -0.01221
H         -3.74236        0.54258        0.15903
H         -4.21940       -1.87169        0.01309
H         -1.64533       -4.60567       -0.14264
H         -0.07796       -4.28483       -0.26572
H          3.78983       -3.05054        0.13366
H          4.13858       -1.47971        0.25766
H         -0.75530        3.39380       -0.03634
