27
Coordinates from ORCA-job ./opt_b97-3c_parallel
N         -3.42037       -3.42629        0.67533
C         -2.70205       -2.56252        0.46758
C         -1.78313       -1.50471        0.17993
C         -0.71888       -1.89741       -0.55708
C          0.41966       -2.21303        0.09985
C          1.38736       -1.24418        0.17652
N          2.70265       -1.57805        0.38756
C          3.43662       -0.41150        0.22017
N          4.52682       -0.26191        0.27951
N          2.59192        0.65117       -0.07195
C          1.30729        0.15365       -0.09233
C          0.16469        1.04468       -0.23040
C          0.35307        2.45219       -0.41393
C         -0.77512        3.22655       -0.34416
C         -1.72744        2.27876       -0.05868
N         -2.72443        2.73988        0.05079
C         -1.24413        0.93505        0.00608
C         -2.14014       -0.13786        0.37385
H         -0.86287       -2.22778       -1.58547
H          0.64990       -3.25150        0.31757
H          5.16169       -1.04137        0.11032
H          5.09432        0.58416        0.24230
H          1.34380        2.87927       -0.53823
H         -0.74620        4.18433        0.17717
H         -2.98809        3.72387        0.02220
H         -3.52436        2.21861       -0.30457
H         -3.14785        0.09712        0.70695
