24
Coordinates from ORCA-job ./opt_b97-3c_parallel
N          1.19513        2.98873        0.36857
C          0.81794        1.94710        0.39241
N         -0.20702        2.31101       -0.45705
C         -1.26115        1.43637       -0.72373
C         -1.45658        0.10229       -0.19084
C         -2.70849       -0.45740       -0.11121
N         -3.71128       -0.07121       -0.35898
C         -2.54034       -1.70338        0.42526
C         -1.25638       -1.95210        0.65013
C         -0.50948       -0.88371        0.25502
C          0.85242       -0.85622        0.11589
N          1.33740       -1.91108       -0.51579
C          2.65013       -1.73521       -0.37087
N          2.97015       -0.59019        0.30750
C          1.77473        0.00719        0.63670
N          1.47579        1.14839        1.17500
H          0.65987        3.84306        0.19697
H          2.04039        3.31441        0.84091
H         -1.92678        2.18524       -1.18138
H         -4.32178        0.74314       -0.42538
H         -4.32854       -0.88236       -0.41470
H         -3.34668       -2.40089        0.65066
H         -0.86739       -2.87424        1.07747
H          3.31925       -2.49905       -0.80014
