31
Coordinates from ORCA-job ./opt_b97-3c_parallel
N          5.16351       -2.02790        0.41067
C          4.08358       -1.66615        0.35584
C          2.74572       -1.17210        0.26637
C          2.38028        0.13321        0.41956
C          1.01177        0.13178        0.22536
C          0.31119        1.40993        0.10073
N          1.03579        2.56462       -0.06647
C          0.09867        3.57625       -0.19008
N          0.60718        4.53431       -0.40244
C         -1.20854        3.17337       -0.06538
C         -1.05906        1.83056        0.12103
C         -2.17040        1.02432        0.53720
C         -1.89516       -0.32379        0.91220
N         -2.23036       -0.43364        1.95908
C         -1.90264       -1.08964       -0.30421
C         -3.25606       -1.38289       -0.70514
N         -4.32465       -1.58968       -1.05251
C         -0.68228       -1.66051       -0.60674
N         -0.76963       -2.59929       -1.18966
C          0.58339       -1.15639       -0.09650
C          1.65719       -2.00082       -0.09087
H          3.01677        0.91075        0.00080
H          1.46949        4.68299       -0.92719
H          0.18474        5.45635       -0.29371
H         -1.89396        3.73758        0.56561
H         -3.15595        1.48149        0.60406
H         -3.00921        0.01742        2.43807
H         -2.54572       -1.38299        1.75504
H         -1.55685       -3.24733       -1.20002
H          0.00579       -3.08401       -1.63896
H          1.72015       -3.06173       -0.31661
