30
Coordinates from ORCA-job ./opt_b97-3c_parallel
N         -4.58257       -1.70338       -1.44382
C         -3.57883       -1.37646       -1.00718
C         -2.34858       -0.96071       -0.40959
C         -1.23329       -1.60441       -0.89403
C          0.06580       -1.48930       -0.27608
C          0.96825       -2.49848       -0.39249
C          1.95087       -1.58639       -0.10923
C          3.17318       -2.32301       -0.25022
N          4.13440       -2.93403       -0.34261
C          1.98486       -0.30575        0.37993
N          2.72508        0.15309        1.40337
C          0.64821       -0.23018        0.12115
C          0.10783        1.04801       -0.05930
C          0.83585        2.20832       -0.27028
C          2.14378        2.74947       -0.49432
N          2.85418        2.41817       -1.32568
C         -0.02086        3.27494       -0.22860
C         -1.25066        2.86522        0.02464
C         -1.24203        1.51501        0.13454
N         -2.08811        0.87234        0.96303
C         -2.31140       -0.44465        0.92693
N         -2.99043       -0.13284        1.74500
H         -1.37177       -2.40913       -1.61386
H          1.00208       -3.11755       -1.28955
H          3.62149       -0.29408        1.59658
H          2.88584        1.15501        1.49323
H          0.24979        4.32191       -0.37421
H         -2.12542        3.50714        0.10917
H         -3.54805       -0.98470        1.67287
H         -3.35765        0.36768        2.55482
