26
Coordinates from ORCA-job ./opt_b97-3c_parallel
N          2.40940        2.68794        0.24922
C          1.51578        2.06409        0.07419
C          0.22655        2.56019       -0.31604
C         -0.97264        1.87220       -0.42139
C         -1.35029        0.49587       -0.11598
C         -2.75630        0.25323       -0.02585
N         -3.69149        0.83625       -0.09730
C         -2.95625       -1.05865        0.25555
C         -1.77190       -1.65014        0.31071
C         -0.76304       -0.74846        0.09453
C          0.61889       -1.14850        0.00084
N          0.99571       -2.47896       -0.03051
C          2.28812       -2.73114       -0.16647
C          2.72809       -1.48006       -0.17489
C          1.81349       -0.53651       -0.08284
N          1.71005        0.75869       -0.00118
H          3.23583        2.64604        0.84482
H          1.92863        3.54812        0.51180
H          0.18485        3.63207       -0.49258
H         -1.80953        2.51489       -0.67800
H         -4.68607        0.62058       -0.05568
H         -3.61215        1.85068       -0.07041
H         -3.91286       -1.55105        0.43129
H         -1.62943       -2.70319        0.54471
H          2.63854       -3.77348       -0.21960
H          3.78812       -1.25007       -0.24999
