29
Coordinates from ORCA-job ./opt_b97-3c_parallel
N          4.44736        2.71039        0.20404
C          3.64149        1.90961        0.08038
C          2.62059        0.91821       -0.03568
C          2.84655       -0.42387       -0.14664
C          1.56682       -0.93157       -0.19451
C          1.32570       -2.31379       -0.52336
N          2.11235       -3.07091       -0.71090
C          0.10502       -2.85227       -0.77317
C         -0.61508       -3.00055        0.36509
N         -1.64574       -2.24522        0.85815
C         -1.76767       -0.94971        0.38312
C         -3.00772       -0.26224        0.52415
C         -3.01570        1.06347        0.15732
N         -4.28499        1.51647        0.17873
C         -1.66274        1.19105       -0.07784
C         -1.65634        2.60111       -0.34641
N         -1.37247        3.51223       -0.97492
C         -0.85849        0.00645        0.01526
C          0.60136        0.05805       -0.07401
C          1.24511        1.25726        0.00629
H          3.62647       -0.91166        0.43386
H          2.18326       -3.97027       -1.18265
H          2.57178       -2.38841       -1.31116
H         -0.08845       -3.48795       -1.63734
H         -0.94850       -3.83078        1.00525
H         -3.87112       -0.79382        0.91749
H         -4.51150        2.40846       -0.25846
H         -5.06148        0.87959        0.01161
H          0.86907        2.26211        0.14802
