28
Coordinates from ORCA-job ./opt_b97-3c_parallel
N          5.35916       -1.23081        0.11431
C          4.31451       -0.78496       -0.01188
C          3.01265       -0.21035       -0.12965
C          2.75414        1.08342       -0.45424
C          1.38622        1.16479       -0.29266
C          0.73513        2.46412       -0.39276
N          1.28267        3.38939       -0.66286
C         -0.55885        2.81016       -0.09027
C         -1.21546        2.20882        0.94030
N         -1.83338        1.55298        0.01183
C         -1.74763        0.26659        0.04908
C         -2.79035       -0.62814        0.11955
C         -4.20969       -0.44693        0.15541
N         -5.25375       -0.51734       -0.30150
C         -2.41845       -1.94573        0.18090
C         -1.05747       -1.83520        0.14823
C         -0.37905       -3.09457        0.10525
N          0.12823       -4.11787        0.05647
C         -0.54143       -0.49611        0.05749
C          0.79882       -0.08316       -0.04272
C          1.83859       -0.96373        0.09386
H          3.41958        1.88105       -0.13039
H          1.72115        2.89319       -1.43707
H          0.82275        4.20342       -1.06633
H         -0.96487        3.77119       -0.42879
H         -1.94469        2.72488        1.58200
H         -2.93407       -2.70080       -0.41111
H          1.85861       -2.01026        0.36248
