27
Coordinates from ORCA-job ./opt_b97-3c_parallel
N         -4.12358       -0.69996       -1.98089
C         -3.18504       -0.84091       -1.34442
C         -2.01285       -0.96258       -0.53820
C         -1.69264       -2.15886        0.17859
N         -0.79040       -1.68751        0.59806
C         -0.12912       -0.86968        0.26983
C          1.25649       -0.50215        0.15313
C          2.34726       -1.36963        0.46223
N          2.42946       -2.39157        0.86675
C          3.48899       -0.74320        0.04138
C          3.20343        0.43750       -0.50435
C          1.86258        0.65445       -0.42457
C          1.11636        1.71229       -1.05620
N          0.44525        2.57275       -0.26178
C         -0.61049        2.35121        0.55509
N         -0.76076        3.30016        1.09839
C         -1.41229        1.14970        0.57660
C         -1.04623        0.07292       -0.29990
H         -2.10712       -3.16724        0.33075
H          3.10304       -3.14618        0.74461
H          1.51652       -2.82838        0.98393
H          4.49441       -1.15718        0.11364
H          3.93383        1.12518       -0.92522
H          1.83862        2.40200       -1.51947
H         -0.21008        4.13334        1.30464
H         -1.66315        3.44265        1.55191
H         -2.27956        1.10941        1.22970
