31
Coordinates from ORCA-job ./opt_b97-3c_parallel
N          5.07751       -0.77567       -0.91804
C          4.03313       -0.48239       -0.56256
C          2.70846       -0.15874       -0.12443
C          1.77058       -1.05532       -0.54654
C          0.72745       -1.63517        0.11736
C          0.65533       -2.99602        0.21561
N         -0.65356       -3.23230        0.30238
C         -1.47997       -2.11972        0.29892
N         -2.38006       -2.75776        0.35695
C         -0.56113       -1.04309        0.22028
C         -0.90663        0.35454        0.08757
C         -2.15060        0.86543       -0.13508
C         -3.48220        0.41534       -0.41418
N         -3.85345       -0.45810       -1.05176
C         -1.87189        2.26759       -0.00888
N         -2.51036        3.16701       -0.09202
C         -0.58848        2.67828        0.26902
C         -0.01246        1.43740        0.35508
C          1.14152        1.29481        1.07008
C          2.38962        1.05697        0.57038
N          2.99701        1.91780        0.90128
H          1.83304       -1.31862       -1.60203
H          1.30042       -3.88817        0.23593
H         -2.99109       -2.15455       -0.19764
H         -2.95660       -3.54806        0.64394
H         -3.40865        3.12063       -0.57088
H         -2.46311        4.08899        0.34035
H         -0.37155        3.44375        1.01632
H          1.02169        1.22585        2.15191
H          2.96548        2.91848        1.09119
H          3.92416        1.72498        0.52438
