31
Coordinates from ORCA-job ./opt_b97-3c_parallel
N         -0.35451        4.59815        1.80210
C         -0.35452        3.57073        1.30315
C         -0.30450        2.28717        0.66621
C         -1.14631        2.05249       -0.47428
C         -1.78591        0.83506       -0.61455
C         -3.00172        1.02336       -1.35554
N         -2.85118        0.56259       -2.39293
C         -1.36491       -0.35093        0.08496
C         -2.25811       -1.44379        0.30664
C         -3.65292       -1.76585        0.23570
N         -4.30322       -1.13433        0.93328
C         -1.68771       -2.62810        0.70552
C         -0.37520       -2.27487        0.50453
C          0.60738       -3.28972        0.71090
N          1.43903       -4.06095        0.84782
C         -0.12222       -0.89399        0.18831
C          1.15699       -0.36605       -0.24819
C          2.23887       -1.09765       -0.67115
N          2.86892       -1.95655       -0.98493
N          3.35769       -0.36282       -0.82025
C          3.02207        0.94255       -0.44960
N          3.92562        1.58332       -0.48653
C          1.62314        0.97551       -0.11973
C          1.05321        2.07574        0.48354
H         -1.62014        2.94595       -0.88206
H         -1.98976       -3.11792        1.63221
H          3.62815       -2.38309       -1.51981
H          2.29754       -2.75033       -0.68450
H          3.74909        2.57298       -0.30313
H          4.93452        1.52017       -0.63492
H          1.77043        2.82186        0.83150
