34
Coordinates from ORCA-job ./opt_b97-3c_parallel
N         -1.69615       -4.89991       -1.11512
C         -1.24103       -3.97311       -0.62574
C         -0.38801       -2.85185       -0.35846
C         -1.23911       -1.69737       -0.42056
C         -0.41603       -0.55228       -0.16066
C         -1.02052        0.76579       -0.00787
C         -2.34879        0.91760        0.33816
C         -3.42413        0.11131        0.82462
N         -4.30396       -0.49546        1.22679
C         -2.62188        2.31655        0.14831
N         -3.33826        3.15916        0.18074
N         -1.48424        2.95342       -0.31204
C         -0.49882        1.99001       -0.35012
C          0.72994        2.32930       -1.01607
C          1.84484        1.50980       -0.91979
N          2.51549        2.10713       -1.57406
C          2.14298        1.08007        0.43117
C          3.18439        1.81674        1.11325
N          4.20190        2.25120        1.39985
C          1.98615       -0.27986        0.64757
N          2.67711       -0.87078        1.28484
C          0.86747       -0.99898        0.06306
C          0.88742       -2.43839       -0.03545
N          1.53151       -3.33105        0.06658
H         -2.30007       -1.70409       -0.64891
H         -4.23612        2.87132        0.57207
H         -3.49323        4.08001       -0.22971
H          0.67430        3.26679       -1.58606
H          2.74705        2.94420       -2.10728
H          3.40752        1.71262       -1.27385
H          2.47329       -1.84040        1.52599
H          3.63942       -0.69574        1.57218
H          1.36733       -4.29288       -0.23105
H          2.48198       -3.09712       -0.21694
