31
Coordinates from ORCA-job ./opt_b97-3c_parallel
N          5.76539        0.28088        0.80065
C          4.65350        0.13052        0.58456
C          3.26337       -0.04230        0.27264
C          2.81574       -1.26257       -0.13631
C          1.47803       -1.02865       -0.33699
C          0.79153       -1.72000       -1.39595
C         -0.41529       -2.34890       -1.17262
C         -1.25553       -2.10840       -0.01418
N         -1.68572       -3.11602        0.17363
C         -1.58782       -0.85627        0.50077
C         -2.64849       -0.89571        1.47396
N         -3.47350       -0.90583        2.26589
C         -1.32313        0.35780       -0.23947
C         -2.19405        1.42921       -0.25748
C         -3.54885        1.81735        0.00469
N         -4.46516        1.48401       -0.59423
C         -1.46594        2.54008       -0.59222
C         -0.17931        2.24315       -0.69475
C         -0.02948        0.90828       -0.48645
C          1.16559        0.29941       -0.14294
C          2.27617        0.99105        0.27543
N          2.53986        2.02949        0.55625
H          3.39743       -1.86168       -0.83455
H          1.43435       -2.21323       -2.11917
H         -0.56981       -3.24292       -1.78104
H         -2.60722       -2.96454        0.58154
H         -1.59057       -4.12032        0.03624
H         -1.87224        3.53784       -0.75471
H          0.60190        2.94411       -0.97894
H          3.43617        2.21772        1.00249
H          1.81632        2.33836        1.20263
