31
Coordinates from ORCA-job ./opt_b97-3c_parallel
N         -0.53979       -4.82016       -0.85896
C         -0.39204       -3.74411       -0.50304
C         -0.16329       -2.39661       -0.05332
C          0.44007       -2.24313        1.24301
C          1.70406       -1.55643        1.28611
C          2.11415       -0.56101        0.33091
C          3.48756       -0.20575        0.23452
C          3.54328        1.04554       -0.46238
N          4.29210        1.78900       -0.78755
N          2.25036        1.49111       -0.69876
C          1.37574        0.50912       -0.26022
C         -0.00204        0.83091        0.01578
C         -0.45527        2.11455       -0.02428
C         -1.79451        1.87424        0.06934
C         -2.47887        3.13108        0.05182
N         -2.99595        4.14914        0.05827
C         -2.20332        0.57557        0.15039
N         -3.47716        0.20688        0.36293
C         -1.01366       -0.09795        0.08864
C         -0.79390       -1.31682       -0.66571
N         -1.48157       -1.44687       -1.52860
H          0.43560       -3.11907        1.88693
H          2.45255       -1.96289        1.96065
H          4.32746       -0.74221        0.66619
H          5.30007        1.71216       -0.65211
H          4.13565        2.69617       -1.22648
H          0.02309        2.89296        0.56820
H         -4.17224        0.89265        0.65583
H         -3.69700       -0.68193        0.80914
H         -2.31534       -0.86445       -1.60933
H         -1.77990       -2.39754       -1.74757
