31
Coordinates from ORCA-job ./opt_b97-3c_parallel
N          4.42506       -0.39849        0.98480
C          3.40968       -0.84511        0.71271
C          2.11586       -1.32398        0.34058
C          1.86872       -2.72216        0.35899
C          0.63125       -3.10920       -0.05173
C          0.04445       -1.88945       -0.26358
C         -1.18717       -1.83470       -1.00812
C         -2.00509       -0.71603       -0.97321
N         -2.84590       -1.10199       -1.58485
C         -2.11930       -0.13110        0.34433
C         -3.28786       -0.46118        1.12570
N         -4.36990       -0.17450        1.35772
C         -1.48220        1.08953        0.49935
N         -1.82949        1.91198        1.16220
C         -0.35390        1.44177       -0.34058
C          0.04347        2.73407       -0.56656
N          1.35837        2.68413       -0.72594
C          1.86948        1.40562       -0.61832
N          2.85671        1.88215       -0.77421
C          0.75862        0.53561       -0.38826
C          0.90739       -0.81726       -0.07251
H          2.64821       -3.42117        0.64926
H          0.09842       -3.91021        0.45635
H         -1.43562       -2.77684       -1.51407
H         -3.69176       -0.63577       -1.25719
H         -3.15784       -1.94524       -2.06539
H         -1.71371        2.28198        2.10559
H         -2.83625        1.81267        1.02327
H         -0.61433        3.61571       -0.61865
H          3.49304        1.42843       -0.11548
H          3.44871        2.41628       -1.40939
