32
Coordinates from ORCA-job ./opt_b97-3c_parallel
N          5.99676       -0.51350       -0.60493
C          4.90027       -0.21505       -0.46507
C          3.53896        0.15681       -0.25014
C          3.18871        1.35241        0.42339
C          1.77618        1.26593        0.50558
C          1.14419        2.17079        1.42755
C         -0.27590        2.33207        1.52359
C         -0.87807        2.50861        0.22822
N         -1.26718        3.53827        0.08588
C         -1.53095        1.36003       -0.36269
C         -2.57834        1.53981       -1.33399
N         -3.38539        1.69286       -2.12877
C         -1.19069        0.04547        0.14415
C         -2.15847       -1.01982        0.15911
C         -3.59133       -0.90161        0.17070
N         -4.73010       -0.81564        0.21567
C         -1.41441       -2.25168        0.24200
N         -1.95904       -3.21830        0.27736
C         -0.06329       -1.95190        0.20824
C          0.86362       -3.04952        0.21968
N          1.58145       -3.92229        0.04784
C          0.06241       -0.51744        0.17957
C          1.36177        0.07706       -0.06750
C          2.45081       -0.60338       -0.56593
H          3.84989        2.09354        0.86192
H          1.77016        2.79061        2.06290
H         -0.50372        3.08913        2.27284
H         -1.18216        4.45183        0.52751
H         -2.23841        3.45627       -0.21319
H         -2.94571       -3.35645        0.06286
H         -1.48262       -4.08978        0.05009
H          2.39721       -1.12810       -1.51744
