29
Coordinates from ORCA-job ./opt_b97-3c_parallel
N          4.15151        1.55787       -1.02468
C          3.12611        1.12979       -0.75636
C          1.84238        0.61826       -0.37892
C          0.95255        1.40131        0.42409
N          0.95873        1.98794        1.36054
C          0.23446        1.95376       -0.68870
C         -1.05034        1.47634       -0.85747
N         -1.61792        2.23904       -1.42336
C         -1.52481        0.29547       -0.15954
C         -2.93696        0.16726        0.03909
N         -4.01499        0.39652        0.03638
N         -2.55732       -0.78284        0.48196
C         -1.95354       -1.67930        0.75833
C         -0.89848       -0.86082        0.24004
C          0.37446       -1.43194        0.08260
C          0.46524       -2.78318        0.26262
C          1.80805       -2.73999        0.04668
N          1.94971       -1.82405       -0.54647
C          1.59557       -0.79613       -0.36403
H          1.87000        2.44266        1.37266
H          0.25789        2.72685        1.33617
H          0.61319        2.83762       -1.20760
H         -1.88776        3.14552       -1.80116
H         -2.22799        1.54712       -1.85615
H         -3.40005        1.17465        0.26751
H         -4.37214        0.02953        0.91613
H         -2.43156       -2.57390        1.18450
H         -0.15878       -3.47108       -0.30592
H          2.44273       -3.54138       -0.36135
