28
Coordinates from ORCA-job ./opt_b97-3c_parallel
N          1.99510       -2.69165        0.99030
C          1.18122       -2.05821        0.58437
C          0.60642       -2.29293       -0.72086
C         -0.68335       -1.85949       -0.95608
C         -1.25687       -0.67542       -0.35411
C         -2.60558       -0.47495       -0.23705
N         -3.46591       -1.13202       -0.44467
C         -2.75247        0.77758        0.28986
C         -1.58689        1.39516        0.47342
N         -1.51879        2.63376        0.99091
C         -0.60878        0.54345        0.03170
C          0.70703        0.88990       -0.15694
C          1.03026        2.09010       -0.62895
C          2.30219        2.45720       -0.67183
N          2.48274        1.25128       -0.17792
C          1.77375        0.13079        0.19511
N          2.19170       -1.11388        0.62470
H          1.54153       -3.59311        0.83035
H          2.71882       -2.88374        1.68607
H          0.95374       -3.17690       -1.25180
H         -1.33263       -2.48246       -1.56613
H         -4.43426       -0.84027       -0.30823
H         -3.47695       -2.15079       -0.44721
H         -3.71643        1.21893        0.54437
H         -2.35104        3.07877        1.37926
H         -0.70947        2.95814        1.51521
H          0.26781        2.79736       -0.95183
H          3.03170        3.24499       -0.91861
