33
Coordinates from ORCA-job ./opt_b97-3c_parallel
N          4.52553       -1.92109        0.36976
C          3.67328       -1.19660        0.13869
C          2.60486       -0.27554       -0.11024
C          2.61028        1.03507       -0.53594
N          3.42867        1.72745       -0.80387
C          1.37924        1.64475       -0.56827
C          0.57092        0.62756       -0.14503
C         -0.83926        0.76673        0.15511
C         -1.53173        2.01162        0.27168
N         -1.25244        3.08012        0.23289
C         -2.87768        1.86785        0.52885
C         -3.05562        0.50298        0.46754
N         -4.11789        0.19715        0.47258
C         -1.83575       -0.23236        0.31199
C         -1.76941       -1.57750       -0.22371
N         -2.17134       -1.62383       -1.25486
C         -1.06562       -2.83936       -0.28733
C          0.27487       -2.80070        0.22251
C          0.79126       -1.69440        0.82278
C          1.24530       -0.59363        0.15849
H          3.61748        2.67993       -1.11054
H          4.28636        1.37834       -0.37914
H          1.07706        2.26343       -1.41289
H         -0.27174        2.87673        0.41485
H         -1.50649        3.86980        0.82271
H         -3.61403        2.55483        0.10459
H         -4.14193       -0.79887        0.68341
H         -4.95580        0.60890        0.87877
H         -2.80826       -0.83407       -1.35296
H         -2.68511       -2.44626       -1.56537
H         -1.45496       -3.78361       -0.66930
H          0.84572       -3.72269        0.18246
H          0.85858       -1.69326        1.90767
