29
Coordinates from ORCA-job ./opt_b97-3c_parallel
N          2.29997        2.14538       -0.75425
C          1.45683        1.59510       -0.29784
C          0.46089        2.48976        0.01364
C         -0.40908        2.06588        1.05749
N         -1.70203        2.01264        0.64069
C         -2.00957        0.79368        0.06047
C         -3.35765        0.50784       -0.27597
C         -3.42651       -0.79895       -0.61766
C         -2.21305       -1.32409       -0.49353
C         -1.28979       -0.38671       -0.09763
C          0.13392       -0.63019        0.14169
C          0.69526       -1.94967        0.15310
N          0.38069       -3.00951        0.11497
C          2.06931       -2.06195        0.20806
C          2.38256       -0.73642        0.01676
N          3.47410       -0.67729       -0.15091
C          1.30220        0.19926        0.06413
H          2.38874        1.34003       -1.37294
H          2.48562        2.97132       -1.31893
H          0.39232        3.51565       -0.34674
H         -1.05163        2.93886        1.24736
H         -4.18277        1.20073       -0.14319
H         -4.31796       -1.32299       -0.94997
H         -1.98759       -2.35684       -0.74311
H         -0.54461       -2.69750        0.40095
H          0.56949       -3.87585        0.61473
H          2.55918       -2.63528        1.00089
H          4.35062       -1.00938        0.24564
H          3.42881        0.32440        0.03281
