34
Coordinates from ORCA-job ./opt_b97-3c_parallel
N         -4.03936       -0.37983        2.20868
C         -3.18597       -0.53890        1.46565
C         -2.11098       -0.68320        0.51436
C         -1.71816       -1.97862        0.18634
N         -2.19147       -2.90961        0.56801
C         -0.85961       -2.42733       -0.81357
C          0.39708       -1.78284       -1.17221
N          0.90651       -2.51193       -1.83064
C          1.01934       -0.82946       -0.27221
C          2.43288       -0.91259        0.00539
N          3.15127       -1.74971       -0.09133
C          2.80745        0.41081        0.45847
C          4.15361        0.73233        0.85542
N          5.21151        1.02027        1.17671
C          1.71897        1.26255        0.36713
N          1.82709        2.33746        0.61778
C          0.61288        0.46053       -0.07921
C         -0.65181        1.03528       -0.46519
N         -0.73529        2.34294       -0.71993
C         -2.09810        2.57652       -0.82870
N         -2.55837        3.56253       -1.00392
N         -2.78256        1.40472       -0.53668
C         -1.84764        0.39764       -0.40604
H         -3.11407       -2.98916        0.99559
H         -1.78748       -3.84578        0.59196
H         -1.02287       -3.42476       -1.25321
H          0.79204       -3.49016       -2.09242
H          1.90236       -2.30815       -1.90750
H          2.95118       -2.74418        0.00676
H          4.11447       -1.61513        0.21493
H          2.13773        3.03750       -0.05525
H          2.48541        2.38447        1.39621
H         -3.52909        3.78856       -0.78860
H         -2.10124        4.44576       -1.22864
