27
Coordinates from ORCA-job ./opt_b97-3c_parallel
N         -4.73065        1.46857        0.56093
C         -3.70408        1.04767        0.28916
C         -2.43945        0.47612       -0.06223
C         -1.56356        1.05745       -1.02363
N         -0.78600        2.05835       -0.52013
C          0.40590        1.56080       -0.16691
C          1.45266        2.49010        0.06785
C          2.62815        1.83998        0.24226
N          3.85356        2.33749        0.46423
C          2.35392        0.54571        0.12136
C          1.01442        0.32131       -0.08854
C          0.40879       -1.00540       -0.13147
C          1.16965       -2.14348       -0.13881
N          2.09299       -2.75186       -0.17943
N          0.47556       -3.27853        0.03365
C         -0.85153       -2.88351        0.18706
C         -0.94630       -1.46026        0.05446
C         -2.16349       -0.83040        0.25324
H         -2.02994        2.03764       -1.21474
H          1.33549        3.56928        0.01949
H          4.55806        1.79168        0.95803
H          3.97085        3.31389        0.73337
H          3.11042       -0.22933        0.21094
H          2.55983       -3.65445       -0.08958
H          2.71203       -2.16993       -0.74369
H         -1.65259       -3.61415        0.37945
H         -2.97293       -1.42250        0.67307
