27
Coordinates from ORCA-job ./opt_b97-3c_parallel
N         -3.15959        2.81707       -0.06040
C         -2.80382        1.73263       -0.08974
C         -2.28566        0.39953       -0.11671
C         -3.18873       -0.68443        0.05656
C         -2.63427       -1.92680        0.07519
C         -1.31677       -1.60485       -0.11569
C         -0.38577       -2.66042       -0.39866
C          0.91756       -2.33530       -0.63319
N          1.78009       -2.17445        0.37632
C          2.11161       -0.85215        0.63849
N          2.89100       -1.42673        1.18239
C          1.49345        0.26263       -0.06136
C          2.15398        1.44759       -0.26935
N          2.99314        2.17466       -0.28264
N          1.36936        2.42777       -0.73585
C          0.09134        1.87798       -0.80320
C          0.10831        0.49961       -0.38238
C         -1.07104       -0.23792       -0.20837
H         -4.25212       -0.50417        0.18937
H         -2.93852       -2.66372        0.81630
H         -0.76398       -3.68326       -0.41763
H          1.12494       -3.41372       -0.72928
H          3.73886       -1.99360        1.09495
H          2.63653       -1.49388        2.16996
H          3.06405        3.08784        0.17515
H          3.71768        2.19309       -1.00427
H         -0.41769        2.79311       -1.14766
