32
Coordinates from ORCA-job ./opt_b97-3c_parallel
N         -3.89750       -2.00223        1.41464
C         -2.98645       -1.35574        1.16672
C         -2.22222       -0.79701        0.56876
C         -1.48556       -1.70538       -0.17270
N         -1.70204       -2.55496       -0.88053
N         -0.34862       -2.28190       -0.70215
C          0.76955       -1.58166       -0.43861
C          2.02802       -2.24700       -0.48599
C          3.13372       -1.51093       -0.14662
N          4.29275       -2.12273        0.14215
C          2.50950       -0.29772        0.02982
C          3.33831        0.83219        0.31742
N          3.95585        1.76495        0.54673
C          1.07587       -0.29663       -0.12268
C          0.23326        0.89008       -0.05188
C          0.70102        2.14772        0.20261
N         -0.03107        3.16986       -0.17460
C         -1.17718        2.50791       -0.54778
N         -1.67257        3.44372       -0.88148
C         -1.10709        1.16296       -0.25164
C         -2.14299        0.53456        0.34987
N         -3.18604        1.30600        0.75132
H         -1.84590       -2.95304       -1.81282
H         -2.31530       -3.10473       -0.27159
H          2.09389       -3.30417       -0.73020
H          4.32705       -3.11540        0.37300
H          5.01474       -1.64770        0.68488
H          1.40877        2.97546        0.37655
H         -1.44244        4.31510       -1.36466
H         -2.64288        3.55407       -0.58085
H         -3.03686        2.02484        1.46049
H         -4.07066        0.85883        0.99908
