28
Coordinates from ORCA-job ./opt_b97-3c_parallel
N          4.24848       -0.75366       -1.16638
C          3.97677        0.11719       -0.47673
C          2.58966        0.34569       -0.21266
C          2.29816        1.73375        0.01562
C          0.88490        1.86887        0.27686
C          0.68275        3.27867        0.44158
N          0.08568        3.46440        1.39959
C          0.33899        0.60512        0.20017
C         -1.10103        0.38028        0.13140
C         -1.97505        1.52545        0.12910
N         -3.24230        1.15826       -0.17692
C         -3.19410       -0.21143       -0.37224
N         -4.27282       -0.30871       -0.61155
C         -1.87779       -0.71477       -0.15934
C         -1.64395       -2.13779       -0.27551
N         -0.61261       -2.96542        0.16403
C          0.34028       -2.28087        0.79932
N          0.59820       -3.32875        1.06660
C          1.32862       -1.75154       -0.09337
C          1.40302       -0.32189       -0.04793
H          3.02892        2.54043       -0.02027
H         -2.26383        2.58683        0.19004
H         -5.03389        0.26967       -0.24706
H         -4.69908       -0.83884       -1.37466
H         -2.17053       -3.06984       -0.53362
H          0.25450       -4.17881        1.51974
H          1.60223       -3.33466        1.26086
H          2.21399       -2.32818       -0.35854
