34
Coordinates from ORCA-job ./opt_b97-3c_parallel
N         -5.31087       -0.41369        0.16047
C         -4.28784        0.08180        0.06325
C         -2.98390        0.65430       -0.04134
C         -2.59729        1.95135       -0.17665
N         -2.94840        2.99988       -0.26553
N         -1.27606        2.04744       -0.21460
C         -0.83237        0.72494       -0.12909
C          0.60434        0.46314       -0.11905
C          1.52017        1.57330        0.01149
N          1.43857        2.66758        0.17620
C          2.84554        1.01703       -0.07348
C          4.07031        1.77152        0.05689
N          5.02927        2.37523        0.19838
C          2.75587       -0.40739       -0.28781
N          3.72575       -0.94277       -0.35896
C          1.35057       -0.77984       -0.29474
C          1.02222       -2.14493       -0.47606
N          1.73802       -2.90783       -0.84523
C         -0.03996       -3.02774       -0.19129
C         -1.31851       -2.67712        0.35634
N         -2.15803       -3.31882        0.68697
N         -1.68119       -1.41863        0.18187
C         -1.87884       -0.14880       -0.03035
H         -3.93827        3.25619       -0.23263
H         -2.46331        3.87038       -0.49633
H          1.43901        3.49257       -0.42304
H          2.18175        2.82199        0.85914
H          3.93650       -1.93313       -0.23833
H          4.61573       -0.45473       -0.25046
H          1.86584       -3.82707       -1.27068
H          2.46994       -2.32563       -1.25367
H          0.04094       -4.11999       -0.30269
H         -3.03411       -3.52002        1.17194
H         -1.61184       -4.17705        0.78292
