27
Coordinates from ORCA-job ./opt_b97-3c_parallel
N          5.54714       -1.18506        0.43051
C          4.50485       -0.71680        0.40761
C          3.20983       -0.12029        0.33720
C          3.01687        1.26995        0.51772
C          1.62722        1.42605        0.29767
C          1.17520        2.80469        0.23120
N          0.04502        3.23352       -0.35403
C         -1.14066        2.65488       -0.18261
N         -1.59180        1.84727        0.71094
C         -1.40473        0.63755        0.30652
C         -2.50492       -0.26978        0.10234
C         -3.87400        0.15646        0.19434
N         -4.96834        0.48499        0.23276
C         -2.21044       -1.58441       -0.20389
N         -3.01116       -2.59767        0.19043
C         -0.84666       -1.44196       -0.29285
C         -0.29045       -2.70343       -0.68939
N          0.27304       -3.69776       -0.66618
C         -0.33753       -0.14360        0.01008
C          1.07867        0.16741        0.06181
C          2.07291       -0.78193       -0.02697
H          3.76462        2.03177        0.71649
H          1.99390        3.53904        0.27219
H         -1.53951        3.42842       -0.85664
H         -4.02406       -2.50497        0.13545
H         -2.76520       -3.56199       -0.02652
H          2.11205       -1.45695       -0.87832
