36
Coordinates from ORCA-job ./opt_b97-3c_parallel
N          5.68803       -0.87996       -0.41124
C          4.60378       -0.58871       -0.19656
C          3.23053       -0.22569        0.02850
C          2.91979        1.07999       -0.19023
C          1.56703        1.10721        0.05611
C          0.77157        2.32067        0.11567
N          1.30040        3.21352       -0.29721
C         -0.47880        2.51136        0.66227
C         -0.59581        3.04614        1.63893
N         -0.68577        3.73113        2.55084
C         -1.54335        2.04377        0.00276
N         -2.85135        2.12743        0.33452
C         -1.43676        1.20971       -1.07224
C         -1.24180       -0.17253       -0.73538
C         -2.15783       -1.14189       -1.05952
C         -3.28532       -1.04061       -1.94061
N         -4.32038       -0.55764       -1.92011
C         -1.84400       -2.27961       -0.22874
N         -2.42607       -3.22152       -0.20487
C         -0.73488       -1.99411        0.54879
C         -0.18622       -2.81907        1.58780
N          0.21664       -3.47956        2.42895
C         -0.31766       -0.64792        0.25009
C          1.05968       -0.15286        0.35123
C          2.13615       -1.10295        0.33210
N          2.41031       -2.17419        0.35934
H          3.34593        1.61792       -1.03521
H          0.85239        4.12642       -0.23678
H          1.99652        3.18142        0.44599
H         -3.18344        2.90198        0.90671
H         -3.56918        1.91581       -0.35679
H         -2.07654        1.41191       -1.92722
H         -3.43321       -3.25252       -0.35612
H         -2.21326       -3.91208        0.51337
H          2.19137       -2.94057        0.99414
H          3.06474       -2.53883       -0.33098
