31
Coordinates from ORCA-job ./opt_b97-3c_parallel
N         -4.53905       -2.25028        1.13479
C         -3.55841       -1.73181        0.86140
C         -2.34085       -1.08413        0.48003
C         -1.15148       -1.75677        0.62806
C          0.09344       -1.28110        0.25149
C          1.11779       -2.26738        0.15310
C          2.32437       -1.62609       -0.25509
C          3.49141       -2.44195       -0.43183
N          4.44106       -3.06249       -0.57272
C          2.04799       -0.27314       -0.36737
N          2.94443        0.32054       -0.64647
C          0.65402       -0.04480       -0.03498
C          0.19417        1.27431        0.10521
N          1.03624        2.35799        0.03011
C          0.27696        3.45210        0.40642
N          0.99583        4.28488        0.30263
C         -0.99660        3.16017        0.83072
C         -1.05616        1.83384        0.52365
C         -2.30674        1.13253        0.45925
C         -2.32005        0.01634       -0.43266
N         -2.69229        0.32184       -1.42590
H         -1.20838       -2.77637        1.00274
H          0.99938       -3.33298        0.32938
H          3.61328       -0.29174       -1.11480
H          3.48240        1.12378       -0.32765
H          0.72113        5.25851        0.17324
H          2.00995        4.26309        0.19522
H         -1.82824        3.82426        0.60330
H         -3.21122        1.62624        0.80740
H         -2.98176       -0.63056       -1.64846
H         -3.45449        0.92568       -1.73280
