33
Coordinates from ORCA-job ./opt_b97-3c_parallel
N         -3.95689        2.58089        0.39679
C         -3.25609        1.69681        0.21379
C         -2.37993        0.57558        0.02968
C         -0.96187        0.70102        0.19635
C         -0.33204        1.80817        0.68482
C          0.33251        2.73733       -0.05689
N         -0.16217        3.71650       -0.17214
C          1.66002        2.53463       -0.56478
C          2.19127        1.20615       -0.33281
N          2.82331        1.18605       -1.24379
C          2.05653       -0.13580        0.21067
C          3.19852       -0.95374        0.48349
N          4.25646       -1.23661        0.59954
N          2.34599       -1.67956        0.54123
C          1.37872       -2.24052        0.45499
C          0.93413       -0.90700        0.21016
C         -0.41198       -0.61094        0.02147
C         -1.43422       -1.49825       -0.23277
C         -1.47154       -2.91386       -0.46971
N         -1.41129       -3.96917       -0.90290
C         -2.66461       -0.74796       -0.24565
N         -3.70479       -1.10020       -0.39660
H         -0.37730        1.96587        1.76034
H          0.60434        4.37224       -0.31146
H         -0.94965        4.25521        0.18350
H          2.16714        3.36900       -1.05779
H          3.35973        0.32765       -1.36149
H          3.46002        1.95240       -1.45564
H          4.49262       -0.29104        0.89336
H          4.80634       -1.87593        1.16899
H          1.25015       -3.32327        0.60172
H         -4.57298       -0.75879        0.01322
H         -3.82259       -2.10147       -0.54489
