25
Coordinates from ORCA-job ./opt_b97-3c_parallel
N         -4.16975       -0.68353        0.15160
C         -3.13422       -0.31531        0.07155
N         -2.67778        0.95556       -0.20631
C         -1.30515        0.93191       -0.15396
C         -0.65795        2.17076       -0.52149
C          0.70015        2.44091       -0.17954
N          1.38481        1.73414        0.65168
C          2.19296        0.79106        0.32549
N          3.18356        1.24910        0.48684
C          1.71442       -0.51139       -0.01043
C          2.61891       -1.59438       -0.17651
C          1.87634       -2.72206       -0.27662
C          0.59407       -2.38855       -0.17473
C          0.43768       -1.03245       -0.03854
C         -0.83365       -0.34509        0.10110
N         -1.99129       -0.92090        0.16110
H         -4.95670       -0.05385        0.30178
H         -4.49102       -1.61520        0.41052
H         -1.24670        2.97960       -0.94437
H          1.04702        3.44614       -0.46375
H          3.46354        0.48638        1.10112
H          3.58898        2.09952        0.87432
H          3.69926       -1.51674       -0.10091
H          2.26616       -3.72960       -0.40492
H         -0.22298       -3.10485       -0.22391
