30
Coordinates from ORCA-job ./opt_b97-3c_parallel
N          3.31308        1.67046        1.45317
C          3.12293        0.88496        0.64228
C          2.28956        0.32444        0.16196
C          1.71108        1.03453       -0.85991
N          1.79559        1.60659       -1.80766
N          0.57093        1.74172       -0.92683
C         -0.47342        1.60276       -0.07991
N         -1.44178        2.57433        0.03757
C         -2.59260        1.98878        0.55465
N         -3.61468        2.32488        0.80664
N         -2.39618        0.61837        0.64028
C         -1.08927        0.36557        0.28907
C         -0.63901       -0.96935       -0.05074
C         -1.46832       -2.04970       -0.25035
N         -2.55187       -2.27155       -0.25855
C         -0.64619       -3.10183       -0.54935
C          0.62891       -2.73552       -0.50994
C          0.71440       -1.42600       -0.15022
C          1.77325       -0.85695        0.51077
N          2.17190       -1.62017        1.54975
H          1.81631        2.38748       -2.46485
H          2.74504        1.23346       -1.79632
H         -3.96892        3.28286        0.80377
H         -4.42536        1.73653        1.00611
H         -3.48333       -2.05116        0.09168
H         -2.60161       -3.25144       -0.54015
H         -0.97586       -4.11015       -0.80397
H          1.47370       -3.39002       -0.71689
H          1.95557       -2.61660        1.56930
H          3.10486       -1.50284        1.94515
