24
Coordinates from ORCA-job ./opt_b97-3c_parallel
N          2.63748        1.48764       -0.90521
C          1.87798        1.28270       -0.13139
C          1.26424        2.39798        0.35961
C         -0.08818        2.54138        0.25977
N         -0.99862        1.71722       -0.14694
C         -1.65103        0.59973       -0.19654
C         -2.99557        0.42369       -0.30168
C         -3.25162       -0.87967       -0.25867
C         -2.14617       -1.60152       -0.12949
C         -1.10738       -0.72540       -0.09129
C          0.30243       -1.03315        0.04072
C          0.69219       -2.40232        0.18271
N          1.78750       -2.32554        0.25494
C          2.08340       -1.26584        0.23100
C          1.35215       -0.04869        0.01105
H          3.09001        2.36634       -1.14858
H          3.03193        0.77047       -1.51067
H          1.83822        3.12754        0.92803
H         -0.47644        3.00877        1.17752
H         -3.73500        1.21447       -0.40643
H         -4.25047       -1.30452       -0.32376
H         -2.08859       -2.68557       -0.07324
H          0.29498       -3.42646        0.24704
H          3.15252       -1.23570       -0.03049
