27
Coordinates from ORCA-job ./opt_b97-3c_parallel
N          3.35446        2.46039        0.88676
C          2.81298        1.46726        0.72940
C          2.13059        0.23394        0.48699
C          3.16695       -0.63670        0.33436
N          2.56224       -1.70430       -0.13270
C          1.22790       -1.39716       -0.27190
N          0.54448       -2.50469       -0.73869
C         -0.80589       -2.23900       -0.83443
C         -1.47595       -2.07355        0.42688
C         -2.08074       -0.77645        0.65107
N         -2.98664       -0.94067        1.25858
C         -1.54824        0.38714       -0.03557
C         -2.24999        1.54584       -0.26578
N         -3.28835        1.88942       -0.12903
C         -1.35699        2.42934       -0.80690
C         -0.14263        1.89625       -0.87754
C         -0.17569        0.63282       -0.37865
C          0.88970       -0.11441        0.04138
H          4.24595       -0.81421        0.47134
H         -0.57789       -3.27452       -1.13162
H         -1.81465       -2.96746        0.95125
H         -3.71210       -1.45164        1.76132
H         -3.10055        0.04050        1.51433
H         -3.85167        2.66257       -0.48120
H         -3.89372        1.06987       -0.12242
H         -1.59795        3.43827       -1.14055
H          0.73742        2.40120       -1.26962
