32
Coordinates from ORCA-job ./opt_b97-3c_parallel
N         -3.39752       -2.36471        0.62187
C         -2.37289       -1.94227        0.34123
C         -1.05902       -1.45723        0.02260
C          0.01257       -2.43967        0.15176
N          0.01171       -3.47554        0.54626
C          1.25009       -2.33414       -0.59175
C          1.49190       -1.35491       -1.49905
C          2.24175       -0.62916       -0.62755
C          3.58254       -0.42611       -0.55517
C          3.79265        0.69179        0.12766
C          2.67301        1.27521        0.54622
N          2.68929        2.37722        1.31298
C          1.67709        0.44670        0.10770
C          0.32764        0.74300        0.00769
C         -0.15128        2.08855        0.02260
C         -1.49162        2.29420       -0.16241
N         -1.94350        3.55909       -0.16285
C         -1.85801        0.97334       -0.23817
C         -3.25630        0.79262       -0.49573
N         -4.37124        0.68237       -0.72458
C         -0.80774       -0.01528       -0.14940
H          0.29446       -4.27061       -0.02342
H         -0.92471       -3.68049        0.89139
H          1.98041       -3.14524       -0.52253
H          1.86095       -1.59196       -2.49398
H          4.35006       -1.06932       -0.97869
H          4.78738        1.07910        0.33733
H          1.89227        2.59703        1.90733
H          3.53640        2.63945        1.81307
H          0.53147        2.92889        0.08288
H         -1.34077        4.31918       -0.47196
H         -2.89090        3.75961       -0.47977
