30
Coordinates from ORCA-job ./opt_b97-3c_parallel
N          5.03310       -0.52499        0.51734
C          3.89869       -0.47579        0.38954
C          2.47754       -0.37591        0.22212
C          1.73302       -1.51566        0.10969
C          0.46075       -1.02245       -0.05600
C         -0.49547       -1.67132       -0.91978
N         -0.23209       -2.51130       -1.59216
C         -1.77475       -1.95012       -0.45770
C         -2.30590       -1.33867        0.73514
N         -3.08963       -1.89431        1.28171
C         -2.27817        0.01299        1.04140
C         -1.92302        1.00388        0.05717
N         -2.55058        2.15570        0.02773
C         -1.73533        3.00616       -0.49045
C         -0.56404        2.50912       -0.78379
C         -0.62695        1.21537       -0.40145
C          0.47770        0.35232       -0.05129
C          1.74458        0.84640        0.10973
N          2.23267        1.83906        0.14637
H          1.91425       -2.36765        0.76064
H         -0.37996       -3.48359       -1.32864
H          0.72907       -2.43636       -1.91980
H         -2.32290       -2.81957       -0.83453
H         -3.96627       -1.39617        1.13786
H         -3.29143       -2.88570        1.16775
H         -2.96547        0.37929        1.80403
H         -2.16639        4.01151       -0.60804
H          0.26853        3.02874       -1.25117
H          3.20610        2.01866        0.38635
H          1.67315        2.55580        0.60446
