30
Coordinates from ORCA-job ./opt_b97-3c_parallel
N         -4.36931        2.60434       -1.07602
C         -3.40436        2.10513       -0.72410
C         -2.21368        1.43246       -0.26040
C         -1.34835        2.31380        0.49487
C         -0.03363        1.99000        0.94796
C          0.81007        1.51284       -0.10233
N          2.10760        1.59166       -0.08218
C          3.30427        1.09357       -0.18955
N          4.18511        1.76383       -0.22965
C          2.57056       -0.07602       -0.16433
C          3.51401       -1.15684       -0.24894
N          3.34199       -1.81784       -1.16430
C          1.16686        0.20150       -0.01842
C          0.22305       -0.86567        0.21789
C          0.66023       -2.19119        0.46997
N         -0.39487       -3.07173        0.56946
C         -1.48805       -2.31214        0.34865
N         -2.13287       -3.20601        0.46096
C         -1.14547       -0.90969        0.10162
C         -2.13219        0.02129       -0.28081
N         -3.03300       -0.52585       -0.65187
H         -1.74267        3.28656        0.78308
H          0.41349        2.72614        1.61223
H          4.99500        1.20644       -0.50724
H          4.57258        2.63262        0.14441
H          1.36514       -3.02019        0.64070
H         -2.40720       -4.18584        0.54967
H         -2.98973       -2.66647        0.59668
H         -3.87181        0.05452       -0.71818
H         -3.11959       -1.19532       -1.41735
