26
Coordinates from ORCA-job ./opt_b97-3c_parallel
N         -3.59629       -1.54993       -0.15615
C         -3.18174       -0.53261       -0.22295
N         -2.96516        0.82746       -0.32146
C         -1.61668        1.07125       -0.29960
N         -0.99502        2.20326       -0.36482
C         -0.13883        2.98530        0.20920
C          1.27274        2.73465        0.15702
C          1.80010        1.69949       -0.56204
C          1.55510        0.38711       -0.26615
C          2.63925       -0.42823       -0.11811
N          3.74589       -0.49335       -0.12562
N          2.27848       -1.68311        0.13302
C          0.89078       -1.61033        0.13264
N          0.67569       -2.68054        0.33631
C          0.40358       -0.34270       -0.11935
C         -0.95708       -0.18765       -0.18088
N         -1.94510       -1.14953       -0.13576
H         -4.28087       -2.27679        0.04972
H         -4.13695       -0.72660       -0.42095
H         -0.71481        3.78685        0.69782
H          1.91591        3.44717        0.66508
H          2.34493        1.93949       -1.47293
H          4.52832       -1.13967       -0.24313
H          4.16832        0.43689       -0.11152
H          0.90687       -3.67159        0.42587
H         -0.34782       -2.64384        0.35128
