25
Coordinates from ORCA-job ./opt_b97-3c_parallel
N         -5.02414        0.44565       -0.30022
C         -3.96137        0.03137       -0.24955
C         -2.62100       -0.45896       -0.15724
C         -2.34376       -1.83780        0.08966
N         -1.26025       -1.58051        0.02107
C         -0.42088       -0.85430       -0.04719
C          0.98706       -0.52440       -0.06327
C          1.83976       -1.58949        0.00892
N          1.90094       -2.69418        0.06767
N          3.10794       -1.06115       -0.02208
C          2.98152        0.31869       -0.10613
N          4.04166        0.64532       -0.13491
C          1.65204        0.67011       -0.12550
C          1.44453        1.94202        0.32175
N          0.47942        2.86266        0.40927
C         -0.74635        2.53913       -0.02531
N         -1.17308        1.41309       -0.49856
C         -1.41409        0.16550       -0.25552
H         -3.15698       -2.56803        0.22314
H          2.43205       -3.55553       -0.07208
H          0.92291       -2.98701        0.12768
H          5.01070        0.33688       -0.03591
H          4.09802        1.65939       -0.25021
H          1.77120        2.89401        0.76856
H         -1.58154        3.25728       -0.00432
