26
Coordinates from ORCA-job ./opt_b97-3c_parallel
N          3.51706       -0.37189        0.61056
C          2.56247       -0.62377        0.12291
C          1.81167       -1.84108        0.03402
C          0.65794       -1.89586       -0.68790
C         -0.56166       -1.56258       -0.17832
C         -1.59492       -2.41715        0.02630
C         -2.67574       -1.69726        0.29696
C         -2.45063       -0.38613        0.29918
N         -3.41212        0.51697        0.54638
C         -1.12233       -0.25315        0.00832
C         -0.38009        0.98609       -0.15147
N         -0.91689        2.17951       -0.06985
C          0.10535        2.95565       -0.21241
C          1.26499        2.36382       -0.37199
C          0.99106        1.04269       -0.32543
N          2.14816        0.46983       -0.43337
H          4.09599       -1.20767        0.65360
H          4.14720        0.42400        0.53655
H          2.21233       -2.72505        0.52021
H          0.70844       -2.25482       -1.71269
H         -1.54791       -3.50240       -0.02669
H         -3.64872       -2.14015        0.49749
H         -4.37321        0.32808        0.26911
H         -3.22586        1.50449        0.37723
H         -0.36322        3.94927       -0.14919
H          2.22799        2.85702       -0.50668
