33
Coordinates from ORCA-job ./opt_b97-3c_parallel
N          3.92017        1.69698       -2.17642
C          3.13846        1.24385       -1.47608
C          2.16004        0.63078       -0.61013
C          1.51867        1.45249        0.39186
N          1.96519        2.71432        0.67808
C          0.91765        3.28839        1.37284
N         -0.12253        2.50812        1.46342
C          0.17016        1.39699        0.86014
C         -0.82050        0.56144        0.19446
C         -2.14004        1.08333       -0.06954
N         -2.59576        2.09281       -0.01083
C         -2.92179       -0.06006       -0.49495
C         -4.31157        0.05052       -0.86649
N         -5.42076        0.12339       -1.13295
C         -2.14925       -1.20756       -0.41010
N         -2.62563       -2.18016       -0.65154
C         -0.83536       -0.80590        0.03141
C          0.13196       -1.76876        0.54626
N         -0.26951       -2.74284        0.90062
C          1.50624       -1.31635        0.65139
C          2.38535       -2.25845        1.31245
N          3.01242       -3.13844        1.68440
C          1.93150       -0.74088       -0.61226
N          2.49570       -1.39694       -1.31763
H          1.06680        4.33225        1.68792
H         -3.57718        2.35551        0.06540
H         -2.08615        2.65700        0.66671
H         -1.97455       -2.95937       -0.73478
H         -3.48426       -2.45682       -1.12529
H         -1.16365       -2.65184        1.38096
H          0.25536       -3.47124        1.38151
H          3.27424       -0.96512       -1.81453
H          2.78674       -2.35074       -1.10630
