32
Coordinates from ORCA-job ./opt_b97-3c_parallel
N         -4.52365       -0.46381        1.07786
C         -3.43886       -0.40015        0.72146
C         -2.08280       -0.30971        0.23277
C         -1.58595       -1.45589       -0.49477
N         -2.04324       -2.41997       -0.80129
C         -0.35761       -1.60587       -1.05316
C          0.63385       -1.87909       -0.15271
C          0.90284       -3.18274        0.13801
C          2.12378       -2.90602        0.67191
N          1.95843       -1.81807        0.64995
C          1.49104       -0.86224        0.36232
C          1.19058        0.48468       -0.04177
C          2.27044        1.40642       -0.19046
N          3.37276        1.34179       -0.14831
C          1.88850        2.69674       -0.46257
C          0.53458        2.54041       -0.25970
N          0.23221        3.60652       -0.30844
C          0.02182        1.20481       -0.05669
C         -1.32520        0.95283        0.26111
N         -1.93224        1.83387        0.56201
H         -1.92452       -3.03939       -1.60127
H         -2.98714       -2.04218       -0.86321
H         -0.12656       -1.22061       -2.04605
H          0.77983       -3.96985       -0.60244
H          3.07442       -3.33168        1.02621
H          3.51509        0.42348        0.26858
H          4.22561        1.87563        0.00697
H          2.28407        3.20335       -1.35023
H         -0.72838        3.29472       -0.44121
H          0.30219        4.53077       -0.72964
H         -2.79761        1.75748        1.09465
H         -1.25888        2.30259        1.16672
