32
Coordinates from ORCA-job ./opt_b97-3c_parallel
N          4.85205        1.37119       -0.81094
C          3.88687        0.86403       -0.47045
C          2.65967        0.24000       -0.08141
C          2.61064       -1.12431        0.34789
N          3.30157       -1.97550        0.48764
C          1.37182       -1.61428        0.67727
C          0.58479       -0.54038        0.34752
C         -0.82559       -0.71239        0.01701
C         -1.29970       -1.97152       -0.27133
N         -1.17030       -3.06049       -0.42630
N         -2.66237       -1.87184       -0.54480
C         -3.05540       -0.54453       -0.39552
N         -4.14699       -0.45503       -0.55530
C         -1.87195        0.16978       -0.02663
C         -1.94671        1.52794        0.43050
N         -2.87292        2.13346        0.50454
C         -0.84296        2.14111        0.92375
C         -0.16542        2.58526       -0.16691
C          0.97068        1.92177       -0.55815
C          1.35235        0.62906       -0.03006
H          4.11335       -1.40654        0.24780
H          3.64044       -2.69549        1.12468
H          1.20287       -2.12856        1.62589
H         -1.53960       -3.97642       -0.68800
H         -0.15625       -3.18080       -0.38620
H         -5.12344       -0.66677       -0.76586
H         -4.12885        0.53896       -0.30832
H         -2.98136        2.33543        1.50010
H         -2.77415        3.04309        0.04950
H         -0.84402        2.70411        1.85782
H         -0.36304        3.58137       -0.55434
H          1.69508        2.47294       -1.15229
