31
Coordinates from ORCA-job ./opt_b97-3c_parallel
N         -1.96471       -4.82045       -0.86202
C         -1.40545       -3.87337       -0.55141
C         -0.67082       -2.71924       -0.13190
C         -0.95121       -2.05272        1.09662
N         -2.01034       -1.20587        0.97248
C         -1.68474        0.00281        0.37769
C         -2.64876        0.96573        0.19496
C         -4.05921        0.80450        0.41089
N         -5.10758        0.86968       -0.04171
C         -1.97401        2.15780       -0.24948
N         -2.50743        3.09680       -0.50162
C         -0.61545        1.90797       -0.31357
C          0.32679        2.84602       -0.85452
N          1.04650        3.62170       -1.28731
C         -0.37556        0.53972        0.08881
C          0.95632       -0.09317        0.11283
C          2.10886        0.68661        0.45707
N          2.39059        1.66218        0.89519
C          3.14517       -0.24005        0.10762
C          4.55806       -0.01070        0.21506
N          5.68668        0.15947        0.26896
C          2.74261       -1.41922       -0.43839
C          1.38526       -1.36606       -0.27184
C          0.56307       -2.48092       -0.68292
H         -1.87574       -2.44556        1.54805
H         -2.04478        3.98003       -0.71229
H         -3.49660        3.22305       -0.71105
H          1.88967        2.45856        1.28373
H          3.36128        1.95189        0.78659
H          3.29392       -2.34068       -0.26450
H          1.00705       -3.23724       -1.32351
