29
Coordinates from ORCA-job ./opt_b97-3c_parallel
N         -4.61657        2.01318       -0.49352
C         -3.67085        1.38103       -0.39000
C         -2.46714        0.61074       -0.22368
C         -2.52640       -0.72217        0.31706
N         -3.39582       -1.31071        0.66771
C         -1.16790       -1.17514        0.28395
C         -0.90363       -2.49853        0.80407
N          0.11655       -3.21220        0.31651
C          0.69415       -2.83147       -0.82100
N          1.97821       -2.38053       -0.70965
C          2.12911       -1.07209       -0.27299
N          3.38431       -0.51742       -0.11340
C          3.23168        0.81603        0.20622
N          4.21151        1.29432        0.40680
C          1.83654        1.14208        0.21642
C          1.37636        2.41761        0.67255
N          1.06177        3.45057        1.04332
C          1.10059       -0.06523       -0.09550
C         -0.30323       -0.16663       -0.10605
C         -1.14608        0.93714       -0.49765
N         -0.96743        1.91352       -0.98746
H         -4.22453       -0.71682        0.69085
H         -3.56603       -2.06456        1.33189
H         -0.76138       -3.51284        1.20837
H          1.37738       -3.66082       -1.06521
H          4.17848        2.31536        0.35878
H          5.10727        1.07845        0.84880
H         -0.89111        2.20095       -1.96330
H         -1.65009        2.54738       -0.56827
