30
Coordinates from ORCA-job ./opt_b97-3c_parallel
N         -4.57549       -1.60225        0.22834
C         -3.47197       -1.31022        0.27012
C         -2.65426       -0.59552        0.04143
C         -2.00785       -1.15309       -1.02563
N         -0.86033       -1.83217       -1.17249
C          0.21208       -1.69500       -0.36798
N          1.18640       -2.67531       -0.29621
C          2.33299       -2.11762        0.25061
N          3.16705       -2.83438        0.38903
C          2.13177       -0.70896        0.43324
C          3.13310        0.17801        0.93983
N          3.96989        0.84336        1.33719
C          0.76742       -0.44394        0.07385
C          0.20199        0.88290       -0.09959
C          0.90477        2.01972       -0.42878
N          1.89950        2.39296       -0.72139
C         -0.01128        3.03631       -0.48682
C         -1.23299        2.58451       -0.23708
C         -1.17755        1.25014        0.01939
C         -2.18524        0.52113        0.59572
N         -2.67446        1.08477        1.71600
H         -2.22734       -1.73729       -1.93397
H          4.07870       -2.37351        0.43585
H          3.33622       -3.79159        0.70408
H          2.19702        3.29666       -0.35180
H          2.20820        2.37394       -1.69426
H          0.20898        4.08672       -0.68741
H         -2.13056        3.19876       -0.20074
H         -3.62717        0.87843        2.01794
H         -2.49540        2.06753        1.91940
