28
Coordinates from ORCA-job ./opt_b97-3c_parallel
N          5.52728        1.21511       -0.00730
C          4.49403        0.72714        0.03118
C          3.21912        0.08671        0.05434
C          3.07393       -1.26410        0.44427
C          1.68209       -1.48935        0.30822
C          1.24356       -2.79838        0.74895
C         -0.05379       -3.30391        0.44161
C         -0.67127       -2.65000       -0.65226
N         -1.79742       -1.99974       -0.25708
C         -1.53362       -0.66716        0.00545
C         -2.58543        0.29789        0.11312
C         -3.96882       -0.08446        0.07767
N         -5.07945       -0.35502        0.05439
C         -2.16627        1.61269        0.16099
N         -3.01966        2.63084        0.40441
C         -0.80860        1.40118        0.02387
C         -0.19263        2.69741        0.03452
N          0.38561        3.67065       -0.12834
C         -0.36257        0.03941       -0.03096
C          1.06548       -0.29414       -0.08062
C          2.03396        0.66050       -0.29932
H          3.84417       -1.95514        0.77368
H          1.93199       -3.44161        1.28870
H         -0.41332       -4.25349        0.82852
H         -1.51932       -3.34970       -0.70879
H         -4.01589        2.52197        0.22065
H         -2.75582        3.58682        0.17113
H          1.98527        1.30881       -1.17172
