25
Coordinates from ORCA-job ./opt_b97-3c_parallel
N         -4.46310        0.08208        0.73831
C         -3.32483        0.02448        0.65171
C         -2.32213        0.23855        0.23889
C         -1.95571       -0.70084       -0.67445
N         -1.08816       -1.70053       -0.84049
C          0.01673       -1.86132       -0.08908
N          0.66097       -3.06559       -0.01938
C          1.90711       -2.78318        0.51035
C          2.14863       -1.44916        0.70986
C          0.97114       -0.87295        0.32991
C          0.87333        0.53668       -0.00918
C          1.96909        1.35339       -0.18234
N          3.07099        1.29474       -0.20118
C          1.48605        2.61494       -0.40466
C          0.16083        2.62855       -0.35180
C         -0.28564        1.37495       -0.08535
C         -1.48045        1.21272        0.55842
H         -2.45591       -1.19689       -1.52097
H          2.72816       -3.48795        0.71513
H          2.68615       -1.10282        1.59011
H          3.56567        1.08521       -1.06726
H          3.57043        2.07087        0.23298
H          2.09182        3.50087       -0.59946
H         -0.46387        3.50856       -0.49325
H         -1.76737        1.94454        1.31399
