28
Coordinates from ORCA-job ./opt_b97-3c_parallel
N         -3.52422        2.62054       -0.03767
C         -2.56310        2.00321       -0.03175
C         -1.34432        1.25534        0.01381
C         -0.32020        1.99366        0.49821
C          0.56856        2.50843       -0.38487
C          1.80155        1.89633       -0.50071
N          2.54877        2.61154       -0.89413
C          2.08817        0.53836       -0.06718
C          3.47147        0.15743        0.03579
N          3.57692       -1.15765        0.31941
C          2.27220       -1.61021        0.36023
N          2.55952       -2.66142        0.55104
C          1.30906       -0.58369        0.12486
C         -0.03183       -0.93932       -0.00132
N         -0.41324       -2.27219       -0.06202
C         -1.72200       -2.39191       -0.28273
C         -2.23427       -1.12739       -0.34563
C         -3.63626       -0.88003       -0.48221
N         -4.76323       -0.71995       -0.58957
C         -1.20736       -0.16042       -0.16348
H         -0.34945        2.36860        1.51979
H          0.38486        3.51466       -0.76382
H          3.30267        2.65429       -1.57953
H          2.28998        3.58101       -0.70933
H          4.44219        0.66552       -0.06934
H          1.59435       -2.95227        0.38104
H          3.07790       -3.51118        0.77161
H         -2.38567       -3.26389       -0.39517
