28
Coordinates from ORCA-job ./opt_b97-3c_parallel
N          4.01247        0.73293        1.55053
C          2.99877        0.60700        1.03855
C          1.72911        0.48164        0.35642
C          1.21793        1.71912       -0.03559
N          1.63197        2.74458        0.10615
C          0.08569        1.99712       -0.90962
C         -1.17740        1.43946       -0.73704
N         -1.93521        2.12996       -1.16200
C         -1.57788        0.30106        0.06590
C         -2.96064        0.15973        0.42549
N         -4.03093        0.38678        0.56343
N         -2.58639       -0.85934        0.68035
C         -2.00459       -1.81297        0.65102
C         -0.99031       -0.91416        0.20067
C          0.20406       -1.44549       -0.22484
N          0.50158       -2.73631       -0.41537
C          1.80552       -2.86205       -0.65223
N          2.45077       -1.65450       -0.55196
C          1.43557       -0.72995       -0.37373
H          1.30319        3.70760        0.14436
H          2.62143        2.76233        0.34931
H          0.11683        2.94114       -1.47552
H         -2.76167        1.58112       -1.39515
H         -2.03964        3.02984       -1.62778
H         -4.68402        0.24289        1.33028
H         -3.63675        1.31883        0.67546
H         -2.04361       -2.90125        0.80846
H          2.37826       -3.78660       -0.82013
