27
Coordinates from ORCA-job ./opt_b97-3c_parallel
N         -1.09229       -4.48904        1.00222
C         -0.75980       -3.47898        0.58427
C         -0.30757       -2.23246        0.04401
C         -0.96333       -1.58684       -1.03972
N         -2.11068       -0.97500       -0.64032
C         -1.81469        0.25221       -0.19017
C         -2.94246        1.07175        0.08740
C         -4.36041        1.21573        0.18330
N         -5.48817        1.08111        0.31200
C         -2.37821        2.36701        0.31525
N         -1.04042        2.34010        0.19396
C         -0.68000        1.03014       -0.07601
C          0.75297        0.75221       -0.23452
C          1.62945        1.79399       -0.32232
C          2.69514        0.95371       -0.16470
C          3.84795        1.79234       -0.31473
N          4.78297        2.44325       -0.40860
C          2.80344       -0.39198        0.05671
N          3.87852       -1.19587        0.13305
C          1.44715       -0.50827       -0.03057
C          0.94164       -1.75089        0.32887
H         -1.88296       -2.15449       -1.25172
H         -2.66616        3.40410        0.54377
H          1.52245        2.68087        0.30124
H          4.79644       -0.84682       -0.13825
H          3.81305       -2.17003       -0.15559
H          1.61120       -2.43705        0.84176
