29
Coordinates from ORCA-job ./opt_b97-3c_parallel
N         -4.05348        1.00534        0.51444
C         -3.08421        0.42842        0.33228
C         -1.88530       -0.33250        0.12019
C         -2.02729       -1.74837        0.06106
N         -2.85066       -2.48848        0.10588
C         -0.85930       -2.41932       -0.13134
C          0.07910       -1.41749       -0.13170
C          1.42941       -1.86425       -0.35228
C          2.66459       -1.28743       -0.12976
N          3.49761       -2.01112       -0.22170
C          3.15359       -0.02394        0.35117
C          2.56135        1.20881        0.41709
C          1.25834        1.67518        0.04488
C          1.15313        3.09631        0.01293
C         -0.11251        3.42184       -0.30236
C         -0.78597        2.29237       -0.43628
C         -0.01061        1.17790       -0.19090
C         -0.52178       -0.17415       -0.03754
H         -3.66918       -1.89321        0.21997
H         -3.18148       -3.45102        0.10293
H         -0.65004       -3.37165        0.35831
H          1.43902       -2.92790       -0.59979
H          3.44481       -3.01689       -0.36959
H          4.48637       -1.77369       -0.17499
H          4.21566        0.01229        0.59440
H          3.24202        2.01184        0.68484
H          1.97465        3.78456        0.18747
H         -0.48911        4.42306       -0.49667
H         -1.80626        2.28435       -0.80252
