26
Coordinates from ORCA-job ./opt_b97-3c_parallel
N          3.63052        1.64428       -0.98827
C          2.78726        0.94105       -0.67774
C          1.76330        0.04349       -0.23916
C          2.32838       -1.13698        0.16422
N          3.22250       -1.78221        0.31624
N          1.39743       -1.99465        0.56017
C          0.24695       -1.24288        0.36807
N         -0.80806       -2.11680        0.52212
C         -1.98125       -1.54999        0.07241
N         -2.69894       -2.38652        0.20667
N         -2.97917       -0.74178       -0.42108
C         -2.77846        0.61295       -0.67894
C         -1.69500        1.48607       -0.26941
C         -1.84724        2.83317       -0.19941
C         -0.72395        3.33037        0.29066
C          0.17605        2.38495        0.52169
C         -0.34426        1.17843        0.14315
C          0.39650        0.04527       -0.07987
H          4.03596       -1.20560        0.55081
H          3.62637       -2.66137       -0.01831
H         -2.55521       -3.25740        0.72107
H         -3.69684       -2.40498       -0.02174
H         -3.76259        0.99255       -0.99839
H         -2.73469        3.40259       -0.47166
H         -0.56103        4.38914        0.48521
H          1.16148        2.56205        0.94770
