29
Coordinates from ORCA-job ./opt_b97-3c_parallel
N          4.44065        0.07268        1.60116
C          3.38747        0.08418        1.15907
C          2.07194        0.08158        0.56460
C          1.69419        1.42477        0.56136
C          0.64438        1.98636       -0.12877
C          0.51515        3.32636       -0.30924
C         -0.74010        3.54104       -0.67695
C         -1.43530        2.41119       -0.73925
C         -0.61179        1.38227       -0.38567
C         -0.96548        0.37035        0.56447
N         -2.19018        0.03075        0.81956
C         -3.15872       -0.77239        0.51347
N         -4.25029       -0.93259        0.49794
C         -2.08382       -1.58011        0.29619
C         -0.90253       -0.91544        0.10953
C          0.27744       -1.39608       -0.59691
C         -0.09198       -2.57769       -1.34635
N         -0.45887       -3.65162       -1.47650
C          1.59067       -0.96351       -0.34563
N          2.36993       -1.68576       -0.67144
H          2.36158        2.15830        1.01766
H          1.29122        4.08004       -0.18828
H         -1.14889        4.52410       -0.90211
H         -2.48193        2.32746       -1.02199
H         -5.02097       -0.26776        0.56712
H         -4.67891       -1.85799        0.47434
H         -2.08896       -2.61201        0.64770
H          2.30029       -2.69731       -0.78025
H          3.36419       -1.47976       -0.57485
