29
Coordinates from ORCA-job ./opt_b97-3c_parallel
N          4.63681       -1.22127       -0.24127
C          3.63537       -0.67318       -0.22007
C          2.34891       -0.03229       -0.16571
C          1.11868       -0.65440       -0.18392
N          1.07404       -1.98737       -0.35495
C         -0.07944       -2.59249        0.03699
N          0.26540       -3.59839       -0.27830
N         -1.28196       -3.07526        0.45816
C         -2.25493       -2.14593        0.75701
C         -2.28258       -0.76032        0.34659
C         -3.57216       -0.15035        0.36322
N         -3.40632        1.10409       -0.08555
C         -2.12789        1.41506       -0.35667
N         -2.62850        2.37090       -0.62223
C         -1.32414        0.25408       -0.04310
C          0.14708        0.32868       -0.07284
C          0.76632        1.56262        0.00637
C          0.43695        2.95283        0.17920
N          0.00497        3.80075       -0.45345
C          2.14026        1.38886       -0.01923
N          3.03645        2.04324        0.05122
H         -0.23025       -4.49065       -0.22975
H          1.06325       -3.79798       -0.88572
H         -2.99383       -2.89086        1.09298
H         -4.57584       -0.51842        0.62849
H         -3.46717        2.89264       -0.88972
H         -1.85737        2.98256       -0.90244
H          3.99250        1.79922        0.31169
H          2.99606        3.06238        0.05389
