28
Coordinates from ORCA-job ./opt_b97-3c_parallel
N         -3.62583        2.11842       -0.40034
C         -2.96239        1.19329       -0.32664
C         -2.16135        0.01702       -0.19480
C         -2.61000       -1.23332        0.15049
N         -3.59187       -1.70820        0.36514
N         -1.64481       -2.15618        0.29493
C         -0.44881       -1.49271        0.03228
N          0.78849       -2.12877       -0.07802
C          1.83949       -1.40801       -0.60740
N          2.38010       -2.37701       -0.65319
N          2.48668       -0.99448        0.54519
C          2.39346        0.36361        0.83651
N          3.27578        0.48218        1.49943
C          1.49029        1.21644        0.08799
C          1.70996        2.62219        0.01629
C          0.68282        3.19286       -0.66022
C         -0.20945        2.26280       -0.97825
C          0.17682        1.03397       -0.51067
C         -0.72505       -0.09976       -0.25649
H         -4.39328       -1.07527        0.27562
H         -4.01622       -2.60287        0.62689
H          2.15041       -3.22862       -1.17419
H          3.40165       -2.33782       -0.71212
H          4.06331        0.10772        2.03859
H          3.28180        1.47946        1.73374
H          2.57593        3.13170        0.42914
H          0.63439        4.23836       -0.96179
H         -1.07033        2.46335       -1.61241
