28
Coordinates from ORCA-job ./opt_b97-3c_parallel
N          4.60683       -0.35381       -0.38802
C          3.58310        0.15628       -0.39830
C          2.19242       -0.18529       -0.30865
C          1.95192       -1.53641       -0.17468
N          2.26016       -2.59722       -0.09229
N          0.59967       -1.79772       -0.07070
C          0.00992       -0.59585       -0.15885
C         -1.42677       -0.44213       -0.04451
C         -2.25893       -1.56717        0.23979
N         -2.44726       -2.63251        0.44990
N         -2.95041       -0.68804        0.16962
C         -3.54065        0.25733        0.03337
C         -2.19604        0.67364       -0.17999
C         -1.79179        1.91366       -0.58971
C         -0.93653        2.73568        0.08245
C          0.47738        2.47965        0.09571
N          1.22551        3.13953        0.56861
N          0.98386        1.59794       -0.34690
C          0.92975        0.49016       -0.29596
H          3.26808       -2.45306       -0.17741
H          2.12865       -3.59367        0.07936
H         -2.19912       -3.59103        0.68892
H         -3.46424       -2.60672        0.38459
H         -4.57391        0.63757        0.02313
H         -2.21274        2.29178       -1.51896
H         -1.30079        3.63725        0.56833
H          2.21386        3.38211        0.61238
H          0.71842        4.02010        0.49414
