30
Coordinates from ORCA-job ./opt_b97-3c_parallel
N          4.08447       -0.28588        0.95485
C          2.94330       -0.33695        0.95009
C          2.00112       -0.10894        0.39287
C          1.74974       -1.19408       -0.42834
N          2.23350       -1.75685       -1.27280
N          0.90261       -2.23043       -0.75286
C         -0.32334       -2.11852       -0.21399
C         -1.05883       -3.31856       -0.02126
C         -2.33808       -2.90218        0.46566
N         -2.40246       -1.55715        0.49929
C         -1.16706       -1.08088        0.09437
C         -0.98393        0.35491       -0.08075
C         -2.11469        1.13027        0.02090
N         -3.20144        1.31670        0.16412
N         -1.86044        2.41409       -0.21145
C         -0.49172        2.41788       -0.44674
N         -0.37111        3.49559       -0.69120
C          0.10911        1.17179       -0.31297
C          1.30166        1.04137        0.30743
N          1.84797        2.15564        0.85818
H          3.20427       -1.52921       -1.03582
H          2.32489       -2.41815       -2.05097
H         -0.72141       -4.33842       -0.18395
H         -3.12153       -3.63051        0.73005
H         -4.03914        1.88241        0.00174
H         -3.56317        0.41079        0.47626
H         -0.83462        4.36281       -0.97864
H          0.59839        3.77587       -0.51573
H          1.36245        2.63678        1.61640
H          2.83204        2.13819        1.13933
