31
Coordinates from ORCA-job ./opt_b97-3c_parallel
N          4.05461        0.12893       -1.37209
C          3.21024        0.82576       -1.04955
C          2.11790        1.62514       -0.59899
C          2.19509        2.97601       -0.40322
N          1.05992        3.24297        0.23769
C          0.17427        2.19027        0.39229
N         -1.05910        2.06840        1.04125
C         -2.00024        1.17813        0.53252
N         -2.68165        1.42839        1.37730
C         -2.15562        0.44102       -0.62423
C         -2.39124        1.04408       -1.53453
N         -3.27734        1.59843       -1.99367
C         -1.77901       -0.87712       -0.52005
N         -2.58394       -1.62685       -0.68215
C         -0.43873       -1.29166       -0.15369
C         -0.13046       -2.67268        0.09622
N         -0.35393       -3.74894        0.17242
N          1.13506       -2.65166        0.50084
C          1.55850       -1.38657        0.50021
N          2.54711       -1.73627        0.86937
C          0.63766       -0.33595        0.07342
C          0.87295        1.07960       -0.17652
H          2.98752        3.71101       -0.62059
H         -2.85975        1.86945        2.28365
H         -3.61888        1.25034        1.00313
H         -2.23519       -2.35340       -1.30970
H         -3.55882       -1.48979       -0.95663
H         -1.35039       -3.78501       -0.04277
H         -0.10943       -4.68247        0.50519
H          3.40097       -1.62430        0.31412
H          2.80080       -2.43110        1.57851
