29
Coordinates from ORCA-job ./opt_b97-3c_parallel
N         -4.01558       -2.51303        0.22546
C         -3.10954       -2.33534       -0.44846
C         -2.30483       -1.16899       -0.24695
C         -0.91873       -1.54411       -0.29447
C         -0.16466       -0.34206       -0.11125
C          1.26108       -0.45122        0.03380
N          1.96647       -1.53714        0.05585
C          3.26492       -1.54344        0.05883
N          3.88776       -2.43013        0.27930
C          3.48141       -0.22870       -0.24400
C          2.28561        0.42590       -0.21591
C          2.20512        1.77423       -0.71904
C          1.20787        2.71641       -0.57125
N          0.07613        2.95931        0.11485
C         -0.87316        2.04345        0.53140
N         -1.38713        2.96321        0.86882
C         -1.04311        0.69201        0.06971
C         -2.38487        0.18372        0.01664
N         -3.36225        0.68405        0.15704
H         -0.52379       -2.54752       -0.43623
H          3.63085       -3.36988        0.58537
H          4.90297       -2.45535        0.16332
H          4.40190        0.27207        0.05319
H          3.12853        2.12776       -1.16926
H          1.61464        3.67204       -0.93944
H         -1.53113        3.82109        1.40351
H         -2.30480        2.51470        0.82069
H         -3.86179       -0.02494        0.69872
H         -3.99911        0.94161       -0.60017
