33
Coordinates from ORCA-job ./opt_b97-3c_parallel
N          0.11837        3.34259       -2.16595
C         -0.11978        3.17517       -1.06024
C         -0.40827        1.89523       -0.46135
C          0.83224        1.13243       -0.32683
N          2.07240        1.52585       -0.39161
C          3.19466        1.02969        0.05447
N          3.90733        1.86862       -0.08839
C          2.56400       -0.17308        0.32029
C          3.65037       -1.01720        0.72449
N          3.53514       -1.40483        1.79295
C          1.20893       -0.11683        0.10758
C          0.39021       -1.30920        0.25908
C          0.85806       -2.55486        0.56760
N          0.02461       -3.16316       -0.24645
C         -1.05209       -2.70247       -0.97186
N         -1.53855       -3.52289       -1.53154
C         -0.86047       -1.56411       -0.23068
C         -1.91011       -0.79494        0.06007
N         -3.15970       -1.00104       -0.41406
C         -1.75336        0.31344        0.85187
C         -2.49324        0.10247        2.06896
N         -3.04287       -0.08840        3.05114
C         -1.58792        1.59467        0.21802
N         -2.33850        2.38784        0.41429
H          4.07035        2.80467       -0.46473
H          4.72569        1.66894        0.49081
H          1.44094       -3.46234        0.79457
H         -1.51402       -4.48362       -1.87799
H         -2.50717       -3.21788       -1.64563
H         -3.78800       -0.19987       -0.49215
H         -3.72893       -1.73428        0.01028
H         -3.12255        2.43535        1.06653
H         -2.56646        3.03701       -0.34026
