31
Coordinates from ORCA-job ./opt_b97-3c_parallel
N         -5.02138       -0.17023        0.89206
C         -3.92944        0.04599        0.63156
C         -2.55542        0.33504        0.34265
C         -1.57061       -0.67756        0.57556
C         -0.29400       -0.14924        0.20674
C          0.84307       -1.06538        0.12671
C          0.65642       -2.41760        0.14523
C         -0.05458       -3.66246        0.22740
N         -0.96553       -4.12025       -0.28990
C          1.94087       -2.97053       -0.14700
N          2.26493       -1.90977       -0.26067
C          2.24419       -0.80958       -0.10582
C          2.84825        0.48818       -0.05136
C          2.10175        1.47271        0.66485
N          2.47344        2.07210        1.51289
C          1.74268        2.15503       -0.54339
C          0.39662        2.10266       -0.86045
N          0.21353        2.99808       -1.48349
C         -0.50136        1.14463       -0.23452
C         -1.91140        1.44178       -0.18291
N         -2.52790        2.31934       -0.45575
H         -1.78471       -1.67366        0.94522
H          2.67964       -3.76506       -0.33165
H          3.91451        0.56459       -0.24547
H          3.47984        2.11416        1.66214
H          2.15485        3.03018        1.37635
H          2.44483        2.84908       -1.01481
H          0.33906        3.91987       -1.89667
H         -0.73881        2.70648       -1.70042
H         -3.47341        2.43119       -0.09335
H         -1.92445        2.93207        0.09020
