30
Coordinates from ORCA-job ./opt_b97-3c_parallel
N         -1.87618       -4.12726       -0.87184
C         -1.72444       -3.06625       -0.47519
C         -1.48945       -1.72950        0.00898
C         -0.50384       -1.53014        1.02402
N          0.77881       -1.71068        0.59375
C          1.35911       -0.53327        0.15508
C          2.75261       -0.46641       -0.11137
C          3.70954       -1.52692       -0.10183
N          4.50923       -2.34195       -0.09757
C          3.02724        0.92856       -0.31173
N          3.87611        1.60543       -0.52504
N          1.85352        1.66354       -0.16412
C          0.88967        0.76041        0.09388
C         -0.47648        1.27751        0.21236
C         -0.71886        2.68489        0.27100
C         -2.02268        3.09500        0.26665
C         -2.60839        1.86524        0.06175
N         -3.67055        2.15015       -0.06000
C         -1.72873        0.72060        0.06521
C         -2.20276       -0.56409       -0.21568
N         -3.19660       -0.72679       -0.68048
H         -0.04959       -2.51484        1.21969
H          4.07087        2.56326       -0.81742
H          4.77337        1.11853       -0.54639
H          0.08446        3.41214        0.32781
H         -2.36913        3.79058        1.03390
H         -4.37463        2.82462        0.23767
H         -4.04686        1.22690        0.15193
H         -3.59188        0.05244       -1.20562
H         -3.66264       -1.56922       -1.01624
