29
Coordinates from ORCA-job ./opt_b97-3c_parallel
N          4.42048        0.43469       -1.95666
C          3.35318        0.46532       -1.54588
C          2.17266        0.23303       -0.75873
C          2.09130       -1.11533       -0.43251
C          1.15004       -1.85067        0.40285
C          1.66379       -3.13355        0.82637
N          2.06502       -4.16096        1.12674
C         -0.23841       -1.64333        0.55570
N         -0.88890       -2.44689        0.97187
C         -1.08399       -0.60831        0.14013
C         -2.42116       -0.65231       -0.19515
N         -3.27139       -1.34476       -0.34465
C         -2.72915        0.72057       -0.43850
C         -3.88382        1.47328       -0.84477
N         -5.01606        1.59649       -0.92339
C         -1.73083        1.64026       -0.27581
C         -0.74411        0.77863        0.15120
C          0.38224        1.25970        0.75037
N          0.32784        2.33114        1.52271
C          1.35609        3.04045        1.04991
N          2.04146        2.45281        0.01973
C          1.43174        1.27114       -0.10146
H          2.93499       -1.73822       -0.73141
H         -1.84594       -2.30228        1.29163
H         -0.61765       -3.38214        1.27280
H         -2.78222       -2.17579       -0.67294
H         -4.15945       -1.30200       -0.84234
H         -1.91364        2.58599        0.23446
H          1.89173        3.99471        1.17284
