31
Coordinates from ORCA-job ./opt_b97-3c_parallel
N         -4.76944        2.11783        0.72962
C         -3.86721        1.46524        0.47493
C         -2.74777        0.62117        0.18389
C         -1.42005        1.07312        0.47776
C         -0.50542        0.03970        0.09347
C          0.94016        0.27219        0.08955
C          1.56608        1.55866        0.07822
C          1.00931        2.86998       -0.05939
N          0.57319        3.91597       -0.20506
C          2.96555        1.25187        0.09572
N          3.86857        1.88909        0.07558
C          3.30553       -0.07675        0.13336
C          2.05773       -0.63785        0.10655
N          1.98047       -1.93641        0.46231
C          0.83800       -2.62115        0.47195
N          1.56713       -3.34540        0.88355
C          0.31767       -2.81187       -0.84878
C         -0.88999       -2.21175       -1.08844
C         -1.27022       -0.99748       -0.40287
C         -2.65921       -0.63157       -0.39137
N         -3.53707       -1.20578       -0.74130
H         -1.18822        2.02882        0.93126
H          4.88602        1.93743        0.02660
H          3.53866        2.85409        0.04565
H          4.10854       -0.48326       -0.48235
H          0.80098       -4.01451        0.96077
H          2.30561       -3.69946        1.49266
H          0.62088       -3.69501       -1.40749
H         -1.59428       -2.68622       -1.76625
H         -4.31011       -0.54401       -0.81181
H         -3.95583       -2.13415       -0.76174
