29
Coordinates from ORCA-job ./opt_b97-3c_parallel
N         -4.59825       -1.51657        1.21399
C         -3.59014       -1.13629        0.83821
C         -2.32843       -0.69673        0.31590
C         -2.16408        0.66257        0.41322
C         -1.05445        1.34880       -0.04684
C         -1.14694        2.77142       -0.11694
N         -1.79613        3.64922        0.01552
N         -0.10790        2.48530       -0.40990
C          0.96410        2.22964       -0.58203
C          0.24335        1.02151       -0.33003
C          0.99844       -0.21165       -0.15987
C          2.41961       -0.18089        0.00585
C          3.54380        0.70877        0.05131
N          4.64825        0.77725        0.33620
C          2.79038       -1.48726        0.25112
N          3.59044       -2.22779        0.46994
N          1.68880       -2.33475        0.20614
C          0.59477       -1.58789       -0.03671
N         -0.58745       -2.15010       -0.39041
C         -1.64228       -1.34268       -0.77146
N         -1.99387       -2.31244       -1.18983
H         -2.96988        1.25371        0.84587
H         -1.57382        4.64356       -0.01575
H         -2.78874        3.58517        0.23438
H          1.64178        3.07437       -0.78450
H          3.96071       -3.15300        0.70047
H          4.40652       -1.60831        0.51005
H         -2.98014       -2.03618       -1.19721
H         -1.98116       -3.17287       -1.74354
