31
Coordinates from ORCA-job ./opt_b97-3c_parallel
N         -3.98864       -0.22541       -2.10789
C         -2.99612       -0.00517       -1.58619
C         -2.01188        0.30877       -0.58241
C         -2.14104        1.57582       -0.04006
N         -2.83915        2.41757       -0.23421
C         -1.32245        2.05801        1.05503
C          0.03689        1.82802        1.14702
C          0.87329        1.00138        0.40954
C          2.19453        1.28270        0.18986
N          2.74804        2.22368        0.37795
C          2.69116        0.05133       -0.33704
C          4.06106       -0.11037       -0.73807
N          5.20077       -0.05231       -0.80677
C          1.83821       -1.01793       -0.41515
N          2.13044       -2.28104       -0.77962
C          0.69797       -0.37954        0.02423
C         -0.41943       -1.11107        0.57665
N         -0.37117       -2.39143        0.86501
C         -1.59393       -2.79120        0.83895
C         -2.46179       -1.85583        0.55844
C         -1.73691       -0.72935        0.37797
H         -2.81856        3.43515       -0.26535
H         -3.73220        2.12756       -0.62976
H         -1.67368        2.92342        1.62141
H          0.54262        2.58091        1.74415
H          3.73171        2.17481        0.11608
H          2.40255        3.12857        0.06413
H          3.09454       -2.60620       -0.73312
H          1.53559       -3.04114       -0.45286
H         -1.76236       -3.85691        1.05436
H         -3.54160       -1.96473        0.48698
