29
Coordinates from ORCA-job ./opt_b97-3c_parallel
N          0.90313       -3.58426        0.47668
C          0.22111       -2.80691        0.09662
C         -1.18952       -2.57412        0.07912
C         -1.70561       -1.50124       -0.58462
C         -1.64308       -0.19996       -0.17595
C         -2.77573        0.55954        0.01917
N         -3.85235        0.32373       -0.04737
C         -2.50411        1.87830        0.31604
C         -1.13374        1.95842        0.27354
N         -0.75920        2.97992        0.47617
C         -0.54418        0.69270       -0.01620
C          0.88382        0.47437       -0.15373
N          1.79454        1.50089       -0.07474
C          3.04836        0.93832       -0.25211
N          3.85898        1.68783       -0.21420
N          2.90048       -0.43484       -0.41983
C          1.56146       -0.76201       -0.36547
N          1.02964       -1.94009       -0.42726
H          0.13344       -4.24115        0.60670
H          1.74709       -4.15497        0.42854
H         -1.83848       -3.32084        0.53088
H         -2.33681       -1.71854       -1.44499
H         -4.57764        1.04016       -0.01471
H         -4.30462       -0.51859       -0.39957
H         -3.13706        2.68468       -0.06326
H          0.02442        3.51190        0.85064
H         -1.53574        3.64116        0.42947
H          4.83375        1.49443       -0.44858
H          3.82589        2.68436        0.00848
