25
Coordinates from ORCA-job ./opt_b97-3c_parallel
N          4.70883       -0.47949       -0.25627
C          3.69758        0.05009       -0.22443
C          2.39948        0.65647       -0.17662
C          2.27358        2.07771       -0.10373
N          1.18928        1.81527       -0.11425
C          0.23609        1.24691       -0.07677
C         -1.19855        1.07841       -0.02648
C         -2.00276        2.17847       -0.03020
N         -3.07831        1.43277        0.07729
C         -3.24910        0.07005        0.16248
N         -4.35435        0.01843        0.23526
C         -1.89111       -0.10077        0.07425
C         -1.65689       -1.44464        0.17672
N         -0.83432       -2.55797        0.13071
C          0.49261       -2.25204       -0.12311
N          0.98600       -3.23397       -0.20981
N          1.08442       -1.10721       -0.25435
C          1.11330        0.18715       -0.16866
H          3.01962        2.88685       -0.07405
H         -1.79474        3.25735       -0.11641
H         -4.95168       -0.80127        0.36119
H         -5.00615        0.80511        0.19863
H         -2.17805       -2.39045        0.39435
H          1.88025       -3.28888       -0.69926
H          0.72225       -4.20145       -0.01934
