26
Coordinates from ORCA-job ./opt_b97-3c_parallel
N         -3.59433       -0.13547        2.01014
C         -2.57518        0.02003        1.51464
C         -1.81264        0.10724        0.70629
C         -1.98616        1.09775       -0.22200
N         -2.38383        1.67861       -1.07283
N         -1.08427        1.99483        0.01355
C          0.13201        2.33198        0.28579
C          1.24555        1.43222        0.25040
C          2.58862        1.89431        0.22751
C          3.52822        0.91449        0.03266
C          2.73864       -0.21073       -0.08941
N          3.45685       -1.02807       -0.28638
C          1.32997        0.02598        0.06314
C          0.32799       -1.02664        0.01098
N          0.67883       -2.28307       -0.26430
C         -0.42645       -3.02392       -0.20796
N         -1.53786       -2.27658        0.11951
C         -1.08432       -0.97535        0.28906
H         -2.66307        2.65410       -1.16310
H         -3.22549        1.14789       -0.85932
H          0.24555        3.42176        0.38350
H          2.81754        2.95355        0.28718
H          4.45274        0.92775        0.61213
H          2.75455       -1.72258       -0.53777
H          4.36469       -1.43391       -0.50474
H         -0.30654       -4.09944       -0.40845
