30
Coordinates from ORCA-job ./opt_b97-3c_parallel
N         -0.52834       -4.79901        0.67922
C         -0.26378       -3.73129        0.37044
C          0.03962       -2.38644       -0.04745
C         -0.70559       -1.81239       -1.12262
N         -2.02271       -1.62043       -0.81747
C         -2.27302       -0.40680       -0.19974
C         -3.55289        0.00812        0.01870
C         -3.37563        1.35631        0.24092
N         -4.10690        2.15093        0.47810
N         -2.08208        1.72618        0.20618
C         -1.32808        0.65887       -0.04145
C          0.13039        0.74261       -0.11368
C          0.73633        2.04526       -0.14420
C          2.09776        1.86801       -0.04784
C          2.69441        3.17280       -0.08873
N          3.51625        3.84860       -0.50393
C          2.36100        0.52236        0.07799
N          3.44792        0.35848        0.19366
C          1.16835       -0.17193        0.02759
C          1.12477       -1.60597        0.31129
N          1.95288       -2.11968        0.83999
H         -1.46293       -2.54044       -1.45534
H         -4.37053       -0.36083       -0.59862
H         -5.11197        1.97527        0.49807
H         -3.98206        3.08916        0.85895
H          0.18708        2.98050       -0.22286
H          3.58523       -0.62075       -0.05293
H          4.27789        0.85887       -0.12446
H          2.02951       -3.05806        1.23159
H          2.54312       -1.51712        1.41275
