32
Coordinates from ORCA-job ./opt_b97-3c_parallel
N         -3.39087       -1.13149        2.18704
C         -2.52668       -0.85035        1.49256
C         -1.93200       -0.33081        0.70579
C         -1.42234       -1.41704        0.01568
C         -0.04204       -1.75791       -0.19653
C          0.40248       -3.02685       -0.47751
N         -0.10490       -3.98924       -0.66426
C          1.77795       -3.11317       -0.39804
C          2.19169       -1.83220       -0.11338
N          3.29425       -1.75087       -0.09092
C          1.08510       -0.93988       -0.01402
C          1.18384        0.48726        0.10304
N          2.36938        1.08409        0.45144
C          2.14048        2.44211        0.46383
N          3.02738        3.04004        0.73022
N          0.81919        2.65509        0.10572
C          0.17973        1.45282       -0.21543
C         -1.08724        1.26876       -0.76967
C         -1.17928        2.04876       -1.56387
N         -1.38224        2.96394       -2.22285
C         -2.04872        0.84027        0.06432
N         -3.18534        1.56103        0.23660
H         -2.10120       -2.20035       -0.33806
H          0.34401       -4.90415       -0.64601
H         -1.09266       -4.15972       -0.84690
H          2.26058       -3.97971        0.06008
H          3.82947       -2.61427       -0.18404
H          3.89155       -1.10309        0.41852
H          2.97754        3.98546        0.35246
H          4.01879        2.81526        0.80565
H         -4.04499        1.09527        0.52623
H         -3.43825        2.29560       -0.42352
