29
Coordinates from ORCA-job ./opt_b97-3c_parallel
N         -2.87922        2.62098        0.12933
C         -1.89945        2.17390        0.51667
C         -1.04340        1.50363        0.24355
C          0.12088        2.18283       -0.05612
N          0.37907        2.91017       -0.86412
N          1.01736        2.03952        0.58937
C          1.95829        1.47335        0.73440
C          2.20964        0.12097        0.33692
C          3.50627       -0.46348        0.31990
N          4.59357       -0.42653        0.48036
N          2.81338       -1.25999       -0.07356
C          2.04906       -1.99566       -0.44840
C          1.28778       -0.82756       -0.14382
C         -0.16061       -0.77283       -0.23182
N         -0.75556       -1.99682       -0.53144
C         -2.02554       -1.82187       -0.18391
N         -2.22436       -2.87424       -0.47755
C         -2.25767       -0.57041        0.30947
C         -3.63845       -0.59440        0.68679
N         -4.74346       -0.65792        0.96749
C         -1.10423        0.15717        0.17571
H          1.05580        3.60634       -0.55068
H         -0.44599        3.43281       -1.15479
H          2.83042        2.06217        1.05813
H          5.36321       -0.97892        0.10678
H          4.93512        0.52850        0.57071
H          2.49813       -2.96194       -0.72232
H         -1.92751       -3.84847       -0.54053
H         -3.23653       -2.90043       -0.34299
