30
Coordinates from ORCA-job ./opt_b97-3c_parallel
N          4.22529       -2.72122        0.06130
C          3.36226       -1.97416        0.03041
C          2.24572       -1.06395        0.00627
C          2.24890        0.31382       -0.09238
N          3.19632        0.88102       -0.19293
C          0.94798        0.75426       -0.07793
C          0.71488        2.14681       -0.43740
N          1.01146        3.16597       -0.74055
N         -0.42197        2.85315       -0.31129
C         -1.46269        2.46532        0.42242
N         -2.05515        1.67154        1.23894
C         -2.15903        0.58480        0.55508
C         -3.46329        0.04648        0.34757
C         -3.31779       -1.22608       -0.29212
N         -3.91379       -2.07484       -0.67175
N         -1.96880       -1.47977       -0.46632
C         -1.35793       -0.38094        0.00824
C          0.10014       -0.33548        0.02230
C          0.85888       -1.49546        0.05076
N          0.61510       -2.57640        0.12769
H          3.35644        1.86094        0.03769
H          4.10088        0.41653       -0.11395
H          1.76981        2.63696       -1.16712
H          1.01865        4.08947       -1.17003
H         -1.77920        3.45761        0.06392
H         -4.39939        0.50111        0.65915
H         -3.61426       -3.00924       -0.95069
H         -4.91540       -2.03234       -0.86111
H          1.47810       -2.99553        0.47326
H          0.02144       -3.35376       -0.15438
