33
Coordinates from ORCA-job ./opt_b97-3c_parallel
N          4.09607       -2.18723       -1.19339
C          3.20561       -1.59093       -0.79463
C          2.05906       -0.88269       -0.27196
C          2.14721       -0.28455        1.04351
N          2.92291       -0.45762        1.81825
C          2.04758        1.16465        1.11133
C          1.43410        1.94863        0.06878
N          1.72617        3.21775       -0.03906
C          0.70329        3.64259       -0.71410
C         -0.22029        2.77100       -1.06691
C          0.19911        1.58843       -0.57693
C         -0.65528        0.56506       -0.00688
C         -2.06856        0.77176        0.15794
N         -2.70911        1.67480        0.16933
C         -2.64055       -0.54289        0.32028
C         -4.04004       -0.80897        0.54199
N         -5.14088       -1.03981        0.73941
C         -1.62613       -1.55253        0.12406
N         -1.89988       -2.62687        0.15318
C         -0.38834       -0.83720       -0.09774
C          0.79675       -1.38720       -0.57872
N          0.63111       -2.28892       -1.20963
H          3.36965       -1.34377        1.58621
H          3.54122        0.01343        2.47645
H          2.61706        1.73845        1.84904
H          0.72306        4.72156       -0.92964
H         -1.11833        2.97133       -1.64637
H         -3.71692        1.73201        0.30919
H         -2.37947        2.61943       -0.01543
H         -2.67542       -3.18265        0.50952
H         -1.06242       -3.20404        0.21870
H         -0.16641       -2.38504       -1.83627
H          1.37586       -2.87551       -1.58195
