26
Coordinates from ORCA-job ./opt_b97-3c_parallel
N         -4.07913        0.63589       -1.34932
C         -3.05841        0.45262       -0.87418
C         -1.79116        0.25835       -0.23498
C         -1.39012       -1.06843       -0.36434
C         -0.11091       -1.56752        0.09391
C          0.22853       -2.89919        0.13535
N         -0.04371       -3.96614        0.01298
N          1.58365       -2.99998        0.45221
C          2.10808       -1.75737        0.57419
C          1.05308       -0.81344        0.38757
C          1.27831        0.57194        0.05058
C          2.40404        1.38843       -0.48410
C          2.66654        2.69276       -0.78275
N          1.42833        2.94884       -0.35135
C          0.70986        1.89547        0.04220
N         -0.55140        2.16358        0.57453
C         -1.36451        1.07921        0.88508
N         -1.89302        1.96539        1.30490
H         -2.04388       -1.78948       -0.85390
H         -0.96101       -4.41330        0.07465
H          0.60489       -4.74176       -0.14251
H          3.13267       -2.13895        0.71403
H          3.18386        0.64321       -0.63234
H          3.45014        3.37461       -1.15032
H         -2.88434        1.86773        1.06444
H         -1.89460        2.66394        2.05453
