27
Coordinates from ORCA-job ./opt_b97-3c_parallel
N         -4.42799        0.93952       -0.04483
C         -3.35094        0.67760       -0.02231
C         -2.15363        1.29223        0.26843
C         -1.16575        0.36565        0.05538
C          0.25772        0.74235        0.08338
C          0.59633        2.12713        0.26579
N          1.92646        2.25529        0.11488
C          2.55237        1.09676       -0.14255
N          3.59923        1.45154       -0.19937
C          1.52546        0.09123       -0.14626
C          1.90029       -1.29624       -0.24148
N          2.89564       -1.73881       -0.42919
C          1.14176       -2.34775        0.16030
C         -0.05798       -2.46767       -0.44447
N         -1.28302       -2.05366       -0.73305
C         -1.78580       -0.86451       -0.37032
N         -3.13768       -0.62955       -0.43174
H         -4.85376        1.85324        0.12960
H         -5.22425        0.32008       -0.21625
H         -2.01583        2.34353        0.02036
H          0.69748        3.21319        0.41838
H          4.27014        0.68706       -0.10117
H          4.16969        2.28922       -0.33321
H          3.42337       -2.40050        0.14312
H          3.19873       -1.90304       -1.39054
H          1.32620       -2.85039        1.11091
H          0.04520       -3.48909       -0.84423
