32
Coordinates from ORCA-job ./opt_b97-3c_parallel
N          2.62351        3.15620        1.18846
C          2.21615        2.08875        1.11417
C          1.57837        1.26012        0.70098
C          2.43930        0.35464        0.13348
N          2.99731        0.11884       -0.79768
N          2.27302       -0.67714        0.90799
C          1.65481       -1.80440        0.83208
N          2.47951       -2.39255        1.26390
C          0.40165       -1.95092        0.15773
C         -0.13160       -3.22286       -0.17866
C         -1.32942       -3.18521       -0.84256
C         -1.60612       -1.83368       -0.81899
N         -2.61119       -1.79701       -1.27461
C         -0.58067       -1.00363       -0.24800
C         -0.73643        0.43143       -0.03138
C         -1.95499        1.03281       -0.22293
C         -3.34975        1.09089       -0.55582
N         -4.37925        1.31768       -0.11318
C         -1.71131        2.37746        0.18054
N         -1.88000        3.45028        0.41091
N         -0.41199        2.60240        0.56997
C          0.22814        1.40830        0.45150
H          3.72968        0.76619       -1.08575
H          3.44829       -0.78878       -0.68257
H          1.89197       -3.08356        1.72694
H          3.42252       -2.52001        1.62808
H          0.41283       -4.13599        0.04170
H         -1.45690       -3.79856       -1.73802
H         -3.37150       -2.43985       -1.05334
H         -2.49069       -1.83250       -2.28645
H         -2.89314        3.33548        0.47952
H         -1.68909        4.41943        0.66605
