27
Coordinates from ORCA-job ./opt_b97-3c_parallel
N          3.35595       -3.06109        1.25397
C          2.60717       -2.29301        0.86386
C          1.70776       -1.31627        0.32874
C          0.37660       -1.55310        0.54816
C         -0.64742       -0.75780        0.06377
C         -1.94320       -1.36771       -0.00563
N         -2.30417       -2.39701        0.17893
C         -2.73656       -0.25273       -0.40285
C         -4.15157       -0.29756       -0.61826
N         -5.28412       -0.31098       -0.76540
C         -2.06244        0.91958       -0.54104
C         -0.75937        0.59572       -0.24737
C          0.20543        1.62443        0.12610
N         -0.21642        2.88717        0.47046
C          0.94389        3.51828        0.69141
N          2.08906        2.78270        0.44296
C          1.64735        1.56817        0.10333
N          2.45274        0.71909       -0.57586
C          2.01608       -0.55672       -0.84856
N          2.95855       -0.52490       -1.43667
H          0.11326       -2.47739        1.06042
H         -2.16251       -3.38810       -0.01198
H         -3.30188       -2.28406        0.35857
H         -2.51710        1.85487       -0.21826
H          0.83042        4.57237        0.99319
H          3.69181       -0.18960       -2.06588
H          3.02248       -1.54455       -1.49120
