31
Coordinates from ORCA-job ./opt_b97-3c_parallel
N          3.16053        3.50700       -1.54021
C          2.35790        2.78956       -1.15819
C          1.38274        1.86219       -0.67112
C         -0.01122        2.09664       -0.88684
C         -1.05801        1.30955       -0.27319
C         -2.30253        1.86209       -0.17365
C         -3.08206        0.82312        0.27188
C         -4.40970        1.37089        0.32225
N         -5.36911        0.96892       -0.15174
C         -2.39840       -0.36126        0.46607
N         -3.05103       -1.20029        0.77816
C         -1.04079       -0.08430        0.10989
C         -0.10464       -1.19313       -0.06563
N         -0.52754       -2.50364        0.01029
C          0.53975       -3.31479       -0.35198
N          0.31395       -4.39278       -0.31555
N          1.64765       -2.53666       -0.65366
C          1.25678       -1.23177       -0.46917
C          2.19552       -0.15653       -0.41668
C          3.57448       -0.34328       -0.75976
N          4.66313       -0.53041       -1.05093
C          1.88882        0.99170        0.23717
N          2.03605        1.07457        1.57080
H         -0.28796        3.03174       -1.36709
H         -2.41841        2.87346        0.21775
H         -3.96927       -0.80265        0.98116
H         -3.20402       -2.20287        0.68632
H         -0.53146       -4.91289       -0.08264
H          1.07895       -5.06655       -0.29834
H          2.79705        0.56869        2.02403
H          1.98913        1.98809        2.02232
