25
Coordinates from ORCA-job ./opt_b97-3c_parallel
N          4.17479        0.52238       -0.97312
C          3.07142        0.39312       -0.70403
C          1.68401        0.27555       -0.35233
C          1.10182        1.34028        0.40936
N          1.27399        1.95096        1.31359
C          0.60015        2.00403       -0.75753
C         -0.82367        1.98190       -0.91005
C         -1.66386        1.13533       -0.09679
C         -2.96628        1.47626        0.11773
N         -3.51970        0.41523        0.68267
C         -2.64296       -0.64372        0.80933
C         -1.38497       -0.22580        0.28787
C         -0.36307       -1.15367        0.05073
C         -0.70004       -2.47596        0.14756
C          0.45703       -2.97163       -0.38822
N          1.48670       -2.10542       -0.69248
C          0.98618       -0.91245       -0.37900
H          2.24258        1.68038        1.47571
H          1.24527        2.96862        1.32756
H          1.17652        2.71626       -1.34218
H         -1.27586        2.78588       -1.48228
H         -3.81654        2.17446        0.12506
H         -3.37903       -1.34377        1.23193
H         -1.65584       -2.84870       -0.21446
H          0.76701       -4.00427       -0.60799
