27
Coordinates from ORCA-job ./opt_b97-3c_parallel
N         -4.37029       -0.39257       -0.72128
C         -3.27641       -0.19772       -0.45070
C         -1.91086        0.09407       -0.09266
C         -1.60988        1.47444        0.17972
N         -2.18958        2.41910        0.15976
N         -0.57343        1.90131        0.81087
C          0.56035        2.26678        0.33114
C          1.50304        1.30233       -0.10144
C          2.85016        1.62856       -0.40393
C          3.67126        0.54453       -0.57333
C          2.78342       -0.49521       -0.38265
N          3.41442       -1.38615       -0.56221
C          1.42856       -0.10894       -0.08816
C          0.36180       -1.08067        0.13693
C          0.69574       -2.39899        0.24691
C         -0.47667       -3.08887        0.19527
N         -1.54000       -2.22169        0.09660
C         -1.02598       -0.98362        0.07545
H         -1.87874        3.21741       -0.38946
H         -3.06943        2.10496       -0.24538
H          0.63655        3.36082        0.41883
H          3.19613        2.65677       -0.38007
H          4.66283        0.55749       -0.11560
H          4.26508       -1.61834       -1.06951
H          2.63363       -1.58719       -1.18507
H          1.48177       -2.71827        0.92720
H         -0.83714       -4.12827        0.21695
