27
Coordinates from ORCA-job ./opt_b97-3c_parallel
N          4.68518        1.22706        0.51844
C          3.67624        0.70243        0.41478
C          2.43945        0.00011        0.27579
C          1.16626        0.62444        0.12339
C          0.99810        2.03502       -0.02874
C         -0.12420        2.51461       -0.60598
C         -1.09729        2.89068        0.25335
C         -2.17799        2.06164        0.42259
C         -2.18990        0.64912        0.10480
C         -3.48918        0.04367        0.10092
N         -3.37103       -1.28381       -0.10873
C         -2.00971       -1.51672       -0.21086
N         -2.26191       -2.59431       -0.32668
C         -1.22327       -0.32188       -0.08413
C          0.17484       -0.40242       -0.02836
N          0.82875       -1.63354       -0.00573
C          2.13360       -1.33397        0.16750
N          2.76982       -2.24191        0.17426
H          1.86269        2.68140        0.09800
H         -0.06212        2.98948       -1.58364
H         -1.17602        3.93673        0.54041
H         -3.11288        2.48938        0.77737
H         -4.54498        0.33385        0.22211
H         -1.57145       -3.34128       -0.26025
H         -3.14979       -3.09348       -0.43589
H          3.73162       -1.89700        0.12132
H          2.86274       -3.25913        0.18719
