31
Coordinates from ORCA-job ./opt_b97-3c_parallel
N          4.02786       -3.31115       -0.62900
C          3.27836       -2.46985       -0.44672
C          2.37756       -1.38313       -0.22776
C          1.24979       -1.40947       -1.00187
C          0.00088       -1.55282       -0.46358
C         -0.58455       -2.77564       -0.37864
C         -1.70842       -2.07513       -0.01771
C         -2.89040       -2.82329       -0.33440
N         -3.84195       -3.39220       -0.61007
C         -2.01211       -0.83800        0.49757
N         -2.90323       -0.28382        1.33707
C         -0.79387       -0.46913        0.01564
C         -0.36910        0.83341        0.01488
C         -0.99704        2.00722       -0.30247
C         -2.31151        2.28523       -0.78609
N         -3.36225        2.54576       -1.14712
C         -0.17939        3.07526       -0.06875
N         -0.08075        4.18048       -0.11084
N          0.99498        2.69106        0.41422
C          0.83586        1.31430        0.47239
N          1.91399        0.70618        0.86551
C          2.69194       -0.31781        0.68991
N          3.40497        0.10028        1.41952
H          1.35994       -1.47994       -2.08300
H         -0.57907       -3.46218       -1.22584
H         -3.21732        0.67459        1.20065
H         -3.73374       -0.82045        1.59261
H         -1.00556        4.60173       -0.22852
H          0.57734        4.95404       -0.22832
H          3.91245       -0.76987        1.25680
H          3.95220        0.61641        2.10771
