31
Coordinates from ORCA-job ./opt_b97-3c_parallel
N          5.16522       -0.28501       -1.18484
C          4.07541       -0.34118       -0.84546
C          2.71476       -0.45348       -0.40963
C          1.84999        0.59192       -0.57323
C          0.69420        0.11829       -0.00171
C         -0.39165        0.98345        0.42191
C         -0.31264        2.42044        0.43872
C          0.87067        3.22355        0.43485
N          1.79997        3.88975        0.44165
C         -1.57161        2.93348        0.42389
C         -2.44877        1.94599        0.32691
C         -1.80422        0.74277        0.32215
C         -2.25897       -0.41446       -0.40497
C         -3.32526       -0.28487       -1.36234
N         -4.19044       -0.16611       -2.10034
C         -1.94276       -1.67964        0.06822
N         -2.44893       -2.63743       -0.17576
C         -1.38049       -1.82019        1.39101
C          0.05144       -1.92672        1.37848
C          0.88549       -1.16260        0.47927
C          2.16920       -1.58698        0.26690
N          2.71679       -2.50944        0.54025
H          1.82351        1.15258       -1.50598
H         -1.81976        3.99154        0.45972
H         -3.52841        2.07743        0.29132
H         -3.38773       -2.40777       -0.49854
H         -2.48971       -3.58891        0.18480
H         -1.81558       -2.55465        2.06806
H          0.49786       -2.70435        1.99086
H          2.29007       -3.43256        0.48131
H          3.66134       -2.59415        0.16754
