30
Coordinates from ORCA-job ./opt_b97-3c_parallel
N          2.53829        2.80938       -1.05791
C          2.10021        2.48631       -0.05213
C          1.03519        1.52097       -0.10930
C         -0.21258        2.00745       -0.41518
N         -1.03781        2.19873        0.67647
C         -2.04564        1.26550        0.87539
N         -2.30162        2.10644        1.55366
C         -2.19596        0.11688       -0.00039
C         -3.40806       -0.47387       -0.26588
N         -4.50662       -0.62800       -0.28160
N         -3.30806       -1.66519       -0.87891
C         -1.94145       -1.92206       -0.99893
C         -1.20531       -0.80653       -0.47420
C          0.22967       -0.91479       -0.26754
C          0.86047       -2.13058       -0.32381
C          2.17422       -1.86269       -0.01979
N          2.69510       -2.83881       -0.03028
C          2.43030       -0.52119        0.16425
C          3.79309       -0.16713        0.44591
N          3.83313        0.18388        1.53382
C          1.15317        0.08252       -0.03028
H         -0.11811        3.10692       -0.41297
H         -2.04569        1.90322        2.52412
H         -2.73505        3.03300        1.59284
H         -5.08057       -1.35809        0.15060
H         -5.10812       -0.22525       -1.00484
H         -1.75211       -2.91717       -1.43345
H          0.35951       -3.02219        0.06231
H          2.77546       -3.84418       -0.18144
H          3.60703       -2.53517        0.31196
