33
Coordinates from ORCA-job ./opt_b97-3c_parallel
N          4.93961        2.78611        0.49327
C          4.03426        2.09985        0.35011
C          2.92888        1.20788        0.18379
C          1.59359        1.70848        0.27699
C          0.70353        0.60499        0.10404
C         -0.71426        0.90155        0.01498
C         -1.20481        2.15359       -0.24231
C         -2.55706        1.92476       -0.27226
N         -3.14247        2.83044       -0.51039
C         -2.92957        0.64459        0.06809
C         -4.21618        0.03928        0.22735
N         -5.22728       -0.48096        0.34252
C         -1.71740       -0.06779        0.29279
C         -1.59894       -1.28633        0.88059
C         -0.93704       -2.23340        0.17729
N         -1.27337       -3.28775        0.21920
N          0.09506       -2.72967       -0.50831
C          1.18354       -1.86845       -0.59849
N          1.65386       -2.78769       -1.00087
C          1.47491       -0.51776       -0.13981
C          2.86529       -0.14368       -0.10280
N          3.77283       -0.76106       -0.26946
H          1.31936        2.74426        0.46401
H         -0.72113        2.80202       -0.97355
H         -4.14404        2.67785       -0.39751
H         -3.02164        3.82979       -0.67409
H         -2.24358       -1.55082        1.71756
H         -2.06187       -3.24658        0.86419
H         -0.76660       -4.13675        0.47347
H          1.67047       -3.56398       -1.66278
H          2.40745       -2.15876       -1.28315
H          4.21090       -1.60109        0.11078
H          4.49974       -0.04453       -0.23854
