30
Coordinates from ORCA-job ./opt_b97-3c_parallel
N         -1.33896        4.41994        1.03976
C         -1.00405        3.37965        0.71012
C         -0.62045        2.07822        0.24647
C          0.71992        1.82308        0.41886
C          1.35898        0.62391        0.14388
C          2.79030        0.62767        0.16613
N          3.53574        1.43936        0.26250
C          3.05391       -0.76777        0.02394
C          4.36524       -1.34144       -0.02251
N          5.41004       -1.79813       -0.09339
C          1.96119       -1.57706       -0.05838
C          0.91840       -0.68547        0.01070
C         -0.37393       -1.19736        0.10791
C         -0.62247       -2.58829        0.38703
C         -1.93245       -2.98757        0.47758
C         -2.50462       -1.78273        0.16982
C         -3.91535       -2.00598        0.05981
N         -4.76953       -1.27989       -0.16520
C         -1.62812       -0.67839       -0.04019
N         -2.17100        0.45357       -0.53095
C         -1.27056        1.43919       -0.86500
N         -2.21124        1.77778       -1.35247
H          1.33142        2.62685        0.82626
H          4.50163        1.11420        0.23031
H          3.55627        2.42824        0.01980
H          1.94938       -2.40768       -0.76213
H          0.19259       -3.28150        0.57062
H         -2.27128       -3.58119        1.32571
H         -2.07203        2.78893       -1.35145
H         -3.03593        1.61779       -1.93154
