35
Coordinates from ORCA-job ./opt_b97-3c_parallel
N          4.99368        0.67406        1.38806
C          3.89818        0.88944        1.14451
C          2.51761        1.12209        0.83888
C          1.98828        2.39387        1.19177
C          0.69315        2.63297        0.84782
C          0.34146        1.40960        0.33895
C         -0.96505        1.20308       -0.23200
C         -1.84840        2.18749       -0.59814
N         -1.89009        3.28302       -0.73217
C         -3.03190        1.54548       -0.83621
C         -2.95554        0.24865       -0.54941
N         -3.96953       -0.61266       -0.72848
C         -1.69182       -0.00547       -0.09920
C         -1.22341       -0.98947        0.72158
N         -1.52473       -0.83670        2.02288
C         -0.71434       -1.80352       -0.23923
C         -1.64551       -2.90543       -0.35901
N         -2.37406       -3.78536       -0.41868
C          0.59145       -1.67861       -0.87152
N          0.74157       -2.54604       -1.55611
C          1.55979       -0.73467       -0.48291
C          2.88915       -1.04408       -0.96158
N          3.54125       -0.80953       -1.87117
C          1.41211        0.52257        0.27657
H          2.61849        3.13670        1.67230
H          0.03325        3.15782        1.53526
H         -0.89434        3.47504       -0.64107
H         -2.32811        4.13996       -1.06490
H         -3.92727        2.02206       -1.23570
H         -4.93121       -0.28147       -0.77101
H         -3.96047       -1.52678       -0.27843
H         -2.21898       -0.14402        2.29771
H         -1.66071       -1.65785        2.60932
H          1.45071       -2.49365       -2.28639
H          0.43688       -3.51710       -1.50918
