31
Coordinates from ORCA-job ./opt_b97-3c_parallel
N          4.15193       -1.93966        0.62504
C          3.12160       -1.52254        0.35731
C          1.82319       -1.02407       -0.01100
C          1.21997       -1.61093       -1.18173
C         -0.13122       -1.86861       -1.29634
C         -0.94750       -1.89167       -0.10989
C         -1.92694       -2.80448        0.13561
C         -2.91692       -2.19057        0.77216
C         -2.66234       -0.90284        0.95599
C         -1.44606       -0.65041        0.40408
C         -0.95104        0.60100       -0.10941
C         -1.70018        1.74985       -0.17476
N         -2.74239        2.09435       -0.04956
C         -0.81492        2.76316       -0.41846
C          0.44106        2.32710       -0.45393
N          1.49387        3.12358       -0.70121
C          0.41996        0.97183       -0.26624
C          1.33396        0.16815        0.52607
N          1.91670        0.75238        1.27092
H          1.88437       -2.16141       -1.84192
H         -0.40142       -2.56680       -2.08248
H         -1.89627       -3.85925       -0.12744
H         -3.82471       -2.68551        1.10813
H         -3.30329       -0.18810        1.46666
H         -3.10486        1.16068       -0.23432
H         -3.39329        2.75310       -0.47259
H         -1.09238        3.80701       -0.56746
H          1.42547        4.12594       -0.53643
H          2.43080        2.82324       -0.43917
H          1.67645        1.68652        1.59758
H          2.92782        0.65861        1.34962
