30
Coordinates from ORCA-job ./opt_b97-3c_parallel
N         -4.60640        1.93430       -0.27663
C         -3.61329        1.37241       -0.21890
C         -2.34428        0.70649       -0.14592
C         -2.32166       -0.64929       -0.06249
C         -0.98427       -0.93986        0.03406
C         -0.48936       -2.10030        0.74345
N         -1.16871       -2.74221        1.33495
C          0.55423       -2.92121        0.32983
C          1.35038       -2.67849       -0.84064
C          1.90804       -1.47185       -1.19397
C          2.20451       -0.52776       -0.15221
C          3.40416        0.11240       -0.04711
C          2.98901        1.35817        0.36712
N          3.42953        2.34621        0.59762
N          1.67202        1.59803        0.50027
C          1.15954        0.36800        0.17163
C         -0.20538        0.20208       -0.01390
C         -1.06756        1.34912       -0.11650
N         -0.99834        2.45552       -0.15776
H         -2.97952       -1.25907       -0.67953
H         -2.01947       -2.43878        1.80699
H         -1.35877       -3.67983        0.98229
H          0.61332       -3.95848        0.66934
H          1.71743       -3.56941       -1.34227
H          2.63622       -1.54347       -1.99685
H          4.17307       -0.00220       -0.80901
H          4.41080        2.59267        0.47001
H          2.95868        3.20645        0.87875
H         -1.14628        2.91369        0.73956
H         -1.74957        2.77508       -0.76918
