32
Coordinates from ORCA-job ./opt_b97-3c_parallel
N         -1.90329        4.43912        1.14184
C         -1.65294        3.37387        0.81050
C         -1.37394        2.02527        0.37143
C          0.00562        1.89399        0.39706
C          0.90229        0.89477        0.07509
C          2.23947        1.19253       -0.02379
N          2.89676        2.08289       -0.01451
C          2.85980       -0.08044       -0.13086
C          4.20389       -0.57602       -0.23141
N          5.29094       -0.49532       -0.56978
C          2.04005       -1.16813       -0.10075
C          0.81689       -0.54340        0.00548
C         -0.37249       -1.35993        0.14070
C         -0.18869       -2.76837        0.33543
C         -1.36243       -3.41879        0.17297
N         -1.63606       -4.72980        0.23162
C         -2.25284       -2.48368       -0.11861
C         -1.71849       -1.22131       -0.12914
C         -2.51268       -0.11524       -0.57740
C         -2.38593        1.23386       -0.29279
N         -3.37600        1.68556       -0.52023
H          0.54402        2.79907        0.68273
H          3.89769        2.16933       -0.19165
H          2.44932        2.88115       -0.45961
H          2.18249       -1.99367       -0.79699
H          0.76545       -3.25186        0.51870
H         -2.59926       -5.05077        0.30629
H         -1.04834       -5.35513        0.77877
H         -3.29890       -2.69737       -0.32701
H         -3.46169       -0.46896       -0.99416
H         -3.46476        2.67299       -0.28588
H         -4.32350        1.32405       -0.60740
