26
Coordinates from ORCA-job ./opt_b97-3c_parallel
N          4.87018        0.07655        0.13836
C          3.73228       -0.00688        0.07116
C          2.31597       -0.15420       -0.03833
C          1.69315        0.85821       -0.71612
C          0.66724        1.58198       -0.17773
C          0.88901        2.92341       -0.10816
N         -0.30000        3.41251        0.15737
C         -1.30140        2.47931        0.26733
C         -0.65579        1.30771        0.01227
C         -1.30072        0.10362        0.02359
N         -2.66795       -0.09740       -0.15028
C         -3.08013       -1.42198       -0.09221
N         -4.16910       -1.50303       -0.25125
C         -1.88182       -2.02313        0.11540
C         -0.87539       -1.17860        0.17422
N          0.36305       -1.50930        0.34245
C          1.64013       -1.31884        0.46950
N          1.67359       -2.29015        0.98904
H          2.05846        1.12653       -1.70551
H          1.46966        3.85736       -0.14932
H         -2.10245        3.20515        0.47457
H         -4.92522       -0.81846       -0.26436
H         -4.59878       -2.40180       -0.46997
H         -1.76314       -3.10111        0.20959
H          1.60931       -3.12178        1.57535
H          2.66702       -2.07798        0.90351
