29
Coordinates from ORCA-job ./opt_b97-3c_parallel
N          5.64528       -0.67910        0.55813
C          4.52377       -0.54844        0.37988
C          3.11740       -0.38338        0.19771
C          2.18690       -1.37925        0.25646
C          0.99024       -0.74294        0.00802
C         -0.15111       -1.55930       -0.38898
C         -0.06818       -2.88772       -0.69100
C         -1.29677       -3.35169       -0.88033
C         -2.21455       -2.41330       -0.69971
C         -1.55953       -1.27160       -0.35712
C         -2.15004       -0.13708        0.28503
C         -3.55058       -0.05136        0.56981
N         -4.66246        0.00230        0.82968
C         -1.45774        0.94216        0.71584
C         -0.99823        1.78568       -0.24557
C         -2.07766        2.72792       -0.40045
N         -2.92645        3.47661       -0.55773
C          0.33529        1.70897       -0.59491
N          0.66907        2.66939       -1.03433
C          1.20504        0.62168       -0.17574
C          2.54279        0.87732       -0.08696
H          2.25764       -2.16031        1.00998
H          0.84556       -3.46787       -0.80166
H         -1.52342       -4.37902       -1.15544
H         -3.29021       -2.54136       -0.79770
H         -1.30791        1.14294        1.77555
H          1.47682        2.63570       -1.65195
H          0.17936        3.54032       -1.23704
H          3.08682        1.80946       -0.20564
