30
Coordinates from ORCA-job ./opt_b97-3c_parallel
N         -0.40070       -4.64353        1.29590
C         -0.49668       -3.64318        0.75200
C         -0.65326       -2.38478        0.08930
C          0.12989       -2.02484       -1.04894
N          1.41842       -1.70650       -0.73277
C          1.46219       -0.44281       -0.28288
C          2.73856        0.10935        0.02406
C          4.07739       -0.39601        0.00413
N          5.06480       -0.95351       -0.14180
C          2.78568        1.42967        0.38571
C          1.44656        1.70224        0.24017
C          1.07899        2.98710        0.75230
N          0.82107        4.01125        1.18918
C          0.59191        0.60728       -0.14704
C         -0.86093        0.70456       -0.33567
C         -1.54942        1.87619       -0.56685
N         -1.49825        2.95684       -0.79114
C         -2.88973        1.57989       -0.49968
C         -3.10934        0.29416       -0.24614
N         -4.34077       -0.23324       -0.14297
C         -1.88818       -0.30180       -0.18300
C         -1.76395       -1.60393        0.27615
H          0.90690       -2.78016       -1.24995
H          3.32956        1.74962        1.27415
H         -1.99125        3.83784       -0.92510
H         -0.51099        3.15068       -0.94478
H         -3.70652        2.29666       -0.62104
H         -4.47534       -1.14819        0.28264
H         -5.13126        0.35545        0.11262
H         -2.60953       -2.05409        0.78819
