34
Coordinates from ORCA-job ./opt_b97-3c_parallel
N         -5.29492       -2.18161       -1.03461
C         -4.32419       -1.94328       -0.48007
C         -3.28577       -0.97907       -0.25073
C         -2.09075       -1.74885       -0.07771
C         -1.03280       -0.80622        0.10832
C          0.28978       -1.27220        0.45650
C          0.52853       -2.58364        0.96071
C          1.83433       -2.94076        1.15136
C          2.40315       -1.82500        0.58673
C          3.83619       -1.81618        0.63323
N          4.97682       -1.78327        0.69711
C          1.51750       -0.76245        0.16058
C          1.86572        0.33112       -0.62570
C          3.01461        0.13564       -1.48066
N          3.32773       -0.26267       -2.50631
C          1.06154        1.45919       -0.75570
N          1.35937        2.27147       -1.45964
C          0.43253        1.92881        0.46749
C          0.91399        3.14161        1.10234
N          1.26540        4.11528        1.58755
C         -0.93515        1.66222        0.54543
N         -1.65142        2.35921        1.03926
C         -1.53885        0.47105        0.13493
C         -2.96687        0.35610       -0.09651
N         -3.90968        0.93100       -0.17500
H         -2.00055       -2.83237       -0.11086
H         -0.28002       -3.25460        1.23028
H          2.17083       -3.31899        2.11453
H          2.14143        2.15075       -2.10180
H          1.22735        3.27502       -1.34522
H         -1.40173        3.18652        1.57870
H         -2.35964        1.86170        1.57799
H         -3.46248        1.83633       -0.31355
H         -4.73879        0.91381       -0.76675
