29
Coordinates from ORCA-job ./opt_b97-3c_parallel
N          4.58354        1.08519        0.26377
C          3.61441        0.48955        0.16237
C          2.38210       -0.23534        0.06583
C          2.16780       -1.59305       -0.02078
N          2.82536       -2.48013       -0.04263
C          0.84917       -1.96755       -0.12715
C          0.18900       -0.76717       -0.08776
C         -1.25443       -0.67562       -0.03144
C         -2.01007       -1.79412       -0.23528
N         -2.22138       -2.85639       -0.46150
N         -3.30021       -1.54570       -0.06037
C         -3.27706       -0.19651        0.26256
C         -2.03898        0.40504        0.24559
C         -2.38932        1.71589        0.34054
N         -1.44696        2.00442       -0.49986
C         -0.27249        2.51438       -0.33120
N         -0.35736        3.60335       -0.47173
C          0.94802        1.80878       -0.04231
C          1.08661        0.35782        0.00504
H          3.07501       -3.46776       -0.07298
H          3.69196       -1.97587        0.14375
H          0.47520       -2.82037        0.44036
H         -2.83605       -3.66867       -0.51341
H         -1.49354       -3.00584       -1.16027
H         -4.34370        0.01569        0.43749
H         -2.74118        2.46958        1.06174
H          0.51820        3.75709       -0.96913
H         -0.99160        4.34312       -0.76853
H          1.84438        2.41611        0.04792
