33
Coordinates from ORCA-job ./opt_b97-3c_parallel
N         -4.70892       -1.36860       -0.75953
C         -3.81038       -0.68338       -0.58209
C         -2.69533        0.17239       -0.31298
C         -2.62587        1.52668       -0.07479
N         -3.40370        2.31238       -0.04638
C         -1.37072        1.99694        0.23557
C         -0.58568        0.87552        0.17688
C          0.86546        0.93898        0.31252
C          1.51102        2.16208        0.67139
C          2.87552        2.17401        0.57894
C          3.09548        0.95013       -0.00711
N          4.17859        0.93029       -0.23137
C          1.93933        0.10813       -0.14667
C          1.96793       -1.12847       -0.77955
N          2.78970       -1.56444       -1.37917
C          1.03918       -2.13741       -0.61905
C          0.20337       -1.97624        0.53174
N          0.22206       -2.69848        1.36393
C         -1.01790       -1.68011       -0.14141
C         -1.35960       -0.28432       -0.14654
H         -4.30386        1.88079        0.15569
H         -3.59626        3.18548       -0.53290
H         -1.01651        2.93252       -0.19679
H          0.94014        3.03125        0.98078
H          3.46757        2.52602        1.42611
H          4.99158        1.34735        0.21731
H          4.03197        0.02173        0.20597
H          3.44801       -2.31430       -1.58037
H          3.26799       -0.68910       -1.58980
H          1.07901       -3.08950       -1.15263
H         -0.48014       -3.43575        1.36717
H          1.13074       -3.15456        1.30525
H         -1.77483       -2.42651       -0.36394
