28
Coordinates from ORCA-job ./opt_b97-3c_parallel
N          4.79196        1.29932       -1.08754
C          3.74755        0.92006       -0.82139
C          2.42372        0.47981       -0.49920
C          1.37578        1.34381       -0.60534
C          0.27898        0.60079       -0.24067
C         -0.97949        1.23381        0.14101
N         -1.02581        2.56641        0.47535
C         -2.34049        2.76403        0.63936
N         -3.15685        1.68467        0.35182
C         -2.31649        0.69404        0.03876
N         -2.72335       -0.42554       -0.60560
C         -1.79388       -1.42109       -0.77456
N         -2.66914       -1.83866       -1.31171
C         -1.40692       -1.97322        0.48759
C         -0.02816       -1.73599        0.82478
N          0.21494       -2.62342        1.43616
C          0.68263       -0.68294        0.12237
C          2.10217       -0.81994       -0.00656
N          2.80958       -1.64494        0.19660
H          1.49247        2.38432       -0.30611
H         -2.67688        3.77268        0.92980
H         -3.47299       -1.94650       -1.93466
H         -2.12212       -2.69299       -1.44126
H         -2.00495       -2.77178        0.93872
H          0.15278       -3.53875        1.88412
H          1.13202       -2.25501        1.69358
H          3.77546       -1.38336       -0.00128
H          2.78824       -2.66286        0.22341
