25
Coordinates from ORCA-job ./opt_b97-3c_parallel
N         -1.40521        1.52574        1.61019
C         -1.12944        1.02945        0.65615
N         -0.38481        2.17830        0.49974
C          0.31002        2.27433       -0.69727
C          1.53516        1.64808       -0.86939
C          1.99934        0.42820       -0.22756
C          3.33960        0.18890       -0.19787
C          3.21420       -1.06608        0.31400
N          2.12390       -1.10326        0.46892
C          1.15123       -0.65881        0.22650
C         -0.27483       -0.82473        0.10199
C         -0.89821       -2.01263        0.34986
N         -2.04899       -1.77294       -0.23669
C         -2.41260       -0.55196       -0.75858
N         -3.42580       -0.78471       -1.14299
C         -1.27094        0.02936       -0.27038
H         -1.94569        2.38184        1.76614
H         -0.98053        1.32343        2.51980
H          0.71063        3.17978       -1.18229
H          2.30011        2.17356       -1.44309
H          4.03284        0.90211        0.24586
H          4.18761       -1.56964        0.41916
H         -0.43738       -2.91370        0.78652
H         -3.78429       -1.73015       -1.30120
H         -4.15475       -0.17222       -1.51631
