28
Coordinates from ORCA-job ./opt_b97-3c_parallel
N         -3.90007       -1.46607       -1.25312
C         -2.95348       -1.39984       -0.61392
C         -2.07815       -0.76380       -0.36224
C         -1.25118       -1.74912        0.06351
N         -0.26262       -2.60331        0.44427
C          1.00348       -2.09758        0.28447
C          2.11993       -2.96607        0.34636
C          3.24548       -2.13523        0.05006
N          2.81931       -0.82540       -0.14971
C          1.47920       -0.84096        0.00181
C          0.78369        0.45683       -0.07028
C          1.64744        1.51078       -0.29302
N          2.57319        2.09218       -0.48132
N          0.97635        2.68504       -0.07760
C         -0.31792        2.34430        0.25611
N         -0.64429        3.38266        0.47316
C         -0.49486        0.98504        0.09057
C         -1.73116        0.51721       -0.20523
N         -2.74013        1.40861       -0.35074
H         -1.31908       -2.75903        0.50812
H          2.11805       -4.03602        0.53337
H          4.07470       -2.85889        0.08848
H          3.03233        1.18114       -0.57431
H          3.33175        2.77615       -0.52413
H         -0.61980        4.34568        0.81291
H         -1.63732        3.14184        0.41635
H         -3.68677        1.09483       -0.12695
H         -2.83959        1.88805       -1.24598
