34
Coordinates from ORCA-job ./opt_b97-3c_parallel
N         -3.25990       -2.54453        1.43050
C         -2.43082       -1.93576        0.93549
C         -1.34870       -1.22714        0.31495
C         -1.53739       -0.02837       -0.48048
C         -2.78474        0.40309       -0.83285
C         -2.42884        1.71930       -0.72262
N         -3.23731        2.40601       -1.03446
C         -1.26678        2.30722       -0.30316
C         -0.68001        1.08298       -0.18352
C          0.63267        0.89122        0.37709
C          1.42486        1.91054        0.99118
N          1.22505        2.93850        1.33880
C          2.73647        1.53985        1.18576
C          2.81307        0.36613        0.46973
N          3.80646       -0.06049        0.22868
C          1.53744       -0.14362        0.06544
C          1.37248       -1.02693       -1.05839
N          2.03376       -1.62024       -1.71964
N          0.68787       -2.21134       -0.80154
C         -0.39974       -2.20150        0.00682
N         -0.09930       -3.26844        0.12674
H         -3.69416        0.02404       -0.36609
H         -3.15285        3.42192       -1.05995
H         -4.21496        2.20133       -1.23892
H         -0.79151        3.10114       -0.87869
H          1.67998        3.63985        1.92263
H          0.24942        3.22176        1.26132
H          3.55168        2.26758        1.18084
H          4.33652       -0.93193        0.25674
H          4.41579        0.62926        0.67244
H          2.69259       -0.84772       -1.58565
H          2.39334       -2.14150       -2.52091
H         -0.83905       -3.43865        0.81239
H          0.30106       -4.19178       -0.04807
