25
Coordinates from ORCA-job ./opt_b97-3c_parallel
N         -4.95493        1.10812       -0.01632
C         -3.86822        0.76029       -0.08252
C         -2.51148        0.31694       -0.12582
C         -2.12107       -0.98926       -0.04297
C         -0.75231       -0.88201       -0.13596
C          0.05504       -2.04343       -0.36764
N         -0.22090       -3.10902       -0.47337
N          1.30070       -1.99691       -0.67912
C          2.22724       -1.90945        0.20980
C          2.82489       -0.67505        0.58898
C          2.25801        0.58204        0.16799
C          3.11395        1.71023        0.22465
C          2.30908        2.81681       -0.18465
N          1.01051        2.38525       -0.41701
C          1.01363        1.05583       -0.20303
C         -0.31589        0.43277       -0.19715
C         -1.42808        1.22665       -0.22213
H         -2.58289       -1.66913        0.66920
H          0.36912       -3.83111       -0.88194
H         -0.69973       -2.65074       -1.24610
H          2.83680       -2.75254        0.56692
H          3.79713       -0.69598        1.07222
H          4.16451        1.73083        0.49640
H          2.53434        3.88632       -0.31021
H         -1.52570        2.30775       -0.25896
